/*---------------------------------------------------------------------------*\
| =========                 |                                                 |
| \\      /  F ield         | OpenFOAM: The Open Source CFD Toolbox           |
|  \\    /   O peration     | Version:  2012                                  |
|   \\  /    A nd           | Website:  www.openfoam.com                      |
|    \\/     M anipulation  |                                                 |
\*---------------------------------------------------------------------------*/
Build  : _e91649cfd8-20210420 OPENFOAM=2012 patch=210414
Arch   : "LSB;label=32;scalar=64"
Exec   : pimpleFoam
Date   : Jun 21 2021
Time   : 15:04:19
Host   : scw-a5ymyf
PID    : 25610
I/O    : uncollated
Case   : /home/julian/software/mbdyn-adapter/210621/preCICE_issue/differentMeshTimes100/fluid
nProcs : 1
trapFpe: Floating point exception trapping enabled (FOAM_SIGFPE).
fileModificationChecking : Monitoring run-time modified files using timeStampMaster (fileModificationSkew 5, maxFileModificationPolls 20)
allowSystemOperations : Allowing user-supplied system call operations

// * * * * * * * * * * * * * * * * * * * * * * * * * * * * * * * * * * * * * //
Create time

Overriding DebugSwitches according to controlDict
    overset (unregistered)
    dynamicOversetFvMesh (unregistered)
    cellVolumeWeight 0;

    inverseDistance 0;

    displacementLaplacian 1;

    motionDiffusivity 1;

Create mesh for time = 0

Selecting dynamicFvMesh dynamicMotionSolverFvMesh
Selecting motion solver: solidBodyDisplacementLaplacian
Applying solid body motion to entire mesh
Selecting solid-body motion function rotatingMotion
Selecting motion interpolation: patchCorrected
Selecting motion diffusion: quadratic
Selecting motion diffusion: inversePointDistance

PIMPLE: no residual control data found. Calculations will employ 4 corrector loops

Reading field p

Reading field U

Reading/calculating face flux field phi

Selecting incompressible transport model Newtonian
Selecting turbulence model type laminar
Selecting laminar stress model Stokes
No MRF models present

No finite volume options present
Constructing face velocity Uf

Courant Number mean: 0 max: 0

Starting time loop

---[preciceAdapter] The preciceAdapter was loaded.
---[preciceAdapter] Reading preciceDict...
---[precice] [0m This is preCICE version 2.2.0
---[precice] [0m Revision info: v2.2.0
---[precice] [0m Configuration: Release (Debug and Trace log unavailable)
---[precice] [0m Configuring preCICE with configuration "../precice-config.xml"
---[precice] [0m I am participant "Fluid"
---[precice] [0m Setting up master communication to coupling partner/s
---[precice] [0m Masters are connected
---[precice] [0m Setting up preliminary slaves communication to coupling partner/s
---[precice] [0m Prepare partition for mesh Fluid-Mesh-Hole1
---[precice] [0m Prepare partition for mesh Fluid-Mesh-Hole2
---[precice] [0m Receive global mesh Solid-Mesh-Hole1
---[precice] [0m Receive global mesh Solid-Mesh-Hole2
---[precice] [0m Setting up slaves communication to coupling partner/s
---[precice] [0m Slaves are connected
---[precice] [0m iteration: 1, time-window: 1, time: 0 of 10, time-window-size: 0.0001, max-timestep-length: 0.0001, ongoing: yes, time-window-complete: no, 
---[precice] [0m Compute write mapping from mesh "Fluid-Mesh-Hole1" to mesh "Solid-Mesh-Hole1".
---[precice] [0m Mapping distance min:0 max:0.000869248 avg: 0.000235099 var: 2.982e-08 cnt: 160
---[precice] [0m Compute write mapping from mesh "Fluid-Mesh-Hole2" to mesh "Solid-Mesh-Hole2".
---[precice] [0m Mapping distance min:0 max:0.000869248 avg: 0.000235099 var: 2.982e-08 cnt: 160
---[precice] [0m initializeData is skipped since no data has to be initialized.
---[preciceAdapter] preCICE was configured and initialized
--> FOAM Warning : 
    From void adapterInfo(std::string, std::string)
    in file Utilities.C at line 17
    [36mWarning in the preCICE adapter: [0m
You have enabled 'runTimeModifiable' in the controlDict. The preciceAdapter does not yet fully support this functionality when 'adjustableTimestep' is not enabled. If you modify the 'deltaT' in the controlDict during the simulation, it will not be updated.

---[preciceAdapter] Setting the solver's endTime to infinity to prevent early exits. Only preCICE will control the simulation's endTime. Any functionObject's end() method will be triggered by the adapter. You may disable this behavior in the adapter's configuration.
Courant Number mean: 0 max: 0
Time = 0.0001

PIMPLE: iteration 1
DICPCG:  Solving for cellDisplacementx, Initial residual = 0, Final residual = 0, No Iterations 0
DICPCG:  Solving for cellDisplacementy, Initial residual = 0, Final residual = 0, No Iterations 0
Mesh Courant Number mean: 0 max: 0
smoothSolver:  Solving for Ux, Initial residual = 0.9997713254, Final residual = 3.676475123e-08, No Iterations 2
smoothSolver:  Solving for Uy, Initial residual = 0.9999201092, Final residual = 6.215428666e-08, No Iterations 2
FDICPBiCGStab:  Solving for p, Initial residual = 0.9983711671, Final residual = 0.07323938243, No Iterations 2
FDICPBiCGStab:  Solving for p, Initial residual = 0.0359531648, Final residual = 0.01501818688, No Iterations 3
FDICPBiCGStab:  Solving for p, Initial residual = 0.01527500331, Final residual = 0.01073782101, No Iterations 3
time step continuity errors : sum local = 1.572198491e-26, global = 7.673844671e-39, cumulative = 7.673844671e-39
FDICPBiCGStab:  Solving for p, Initial residual = 0.5402834819, Final residual = 0.04216391826, No Iterations 2
FDICPBiCGStab:  Solving for p, Initial residual = 0.02717970971, Final residual = 0.01217105054, No Iterations 3
FDICPBiCGStab:  Solving for p, Initial residual = 0.01230895998, Final residual = 0.008967458937, No Iterations 3
time step continuity errors : sum local = 1.318226594e-26, global = 1.057417574e-33, cumulative = 1.057425248e-33
FDICPBiCGStab:  Solving for p, Initial residual = 0.5378406582, Final residual = 0.04157372894, No Iterations 2
FDICPBiCGStab:  Solving for p, Initial residual = 0.0268305572, Final residual = 0.01181839526, No Iterations 3
FDICPBiCGStab:  Solving for p, Initial residual = 0.01195909831, Final residual = 0.008722725916, No Iterations 3
time step continuity errors : sum local = 1.282134001e-26, global = 7.268531024e-31, cumulative = 7.279105277e-31
PIMPLE: iteration 2
smoothSolver:  Solving for Ux, Initial residual = 7.66336023e-07, Final residual = 3.160227134e-11, No Iterations 1
smoothSolver:  Solving for Uy, Initial residual = 2.879157122e-06, Final residual = 1.40340936e-10, No Iterations 1
FDICPBiCGStab:  Solving for p, Initial residual = 0.6134567047, Final residual = 0.04560025653, No Iterations 2
FDICPBiCGStab:  Solving for p, Initial residual = 0.02806464624, Final residual = 0.01229729214, No Iterations 3
FDICPBiCGStab:  Solving for p, Initial residual = 0.0124484317, Final residual = 0.009067266845, No Iterations 3
time step continuity errors : sum local = 1.669090273e-26, global = 2.148425832e-30, cumulative = 2.876336359e-30
FDICPBiCGStab:  Solving for p, Initial residual = 0.3663527664, Final residual = 0.02925311218, No Iterations 2
FDICPBiCGStab:  Solving for p, Initial residual = 0.0214140573, Final residual = 0.01009431672, No Iterations 3
FDICPBiCGStab:  Solving for p, Initial residual = 0.01015764097, Final residual = 0.007549306114, No Iterations 3
time step continuity errors : sum local = 1.394283266e-26, global = 4.173724672e-30, cumulative = 7.050061032e-30
FDICPBiCGStab:  Solving for p, Initial residual = 0.3647895818, Final residual = 0.02880357407, No Iterations 2
FDICPBiCGStab:  Solving for p, Initial residual = 0.02110145755, Final residual = 0.009781034264, No Iterations 3
FDICPBiCGStab:  Solving for p, Initial residual = 0.009848349635, Final residual = 0.007340327843, No Iterations 3
time step continuity errors : sum local = 1.355644049e-26, global = 6.184006743e-30, cumulative = 1.323406777e-29
PIMPLE: iteration 3
smoothSolver:  Solving for Ux, Initial residual = 6.075857775e-07, Final residual = 6.938827053e-12, No Iterations 1
smoothSolver:  Solving for Uy, Initial residual = 1.517504218e-06, Final residual = 3.33835501e-11, No Iterations 1
FDICPBiCGStab:  Solving for p, Initial residual = 0.3787138431, Final residual = 0.02824084424, No Iterations 2
FDICPBiCGStab:  Solving for p, Initial residual = 0.02052474942, Final residual = 0.009610819106, No Iterations 3
FDICPBiCGStab:  Solving for p, Initial residual = 0.009665347431, Final residual = 0.007224877807, No Iterations 3
time step continuity errors : sum local = 1.37571537e-26, global = 9.247902407e-30, cumulative = 2.248197018e-29
FDICPBiCGStab:  Solving for p, Initial residual = 0.2413197969, Final residual = 0.01950139887, No Iterations 2
FDICPBiCGStab:  Solving for p, Initial residual = 0.01580118651, Final residual = 0.007968136713, No Iterations 3
FDICPBiCGStab:  Solving for p, Initial residual = 0.007996319995, Final residual = 0.006041432414, No Iterations 3
time step continuity errors : sum local = 1.153455149e-26, global = 1.381095745e-29, cumulative = 3.629292763e-29
FDICPBiCGStab:  Solving for p, Initial residual = 0.240309786, Final residual = 0.01916640763, No Iterations 2
FDICPBiCGStab:  Solving for p, Initial residual = 0.01553847746, Final residual = 0.007747386084, No Iterations 3
FDICPBiCGStab:  Solving for p, Initial residual = 0.007774632754, Final residual = 0.007016054029, No Iterations 3
time step continuity errors : sum local = 1.339618594e-26, global = 2.373995625e-29, cumulative = 6.003288388e-29
PIMPLE: iteration 4
smoothSolver:  Solving for Ux, Initial residual = 8.431515849e-07, Final residual = 4.850807752e-12, No Iterations 1
smoothSolver:  Solving for Uy, Initial residual = 1.827113155e-06, Final residual = 2.189794828e-11, No Iterations 1
FDICPBiCGStab:  Solving for p, Initial residual = 0.1489410738, Final residual = 0.01445479822, No Iterations 2
FDICPBiCGStab:  Solving for p, Initial residual = 0.01268042436, Final residual = 0.007003589707, No Iterations 3
FDICPBiCGStab:  Solving for p, Initial residual = 0.007021691077, Final residual = 0.005708893817, No Iterations 3
time step continuity errors : sum local = 1.162134683e-26, global = 1.964968472e-29, cumulative = 7.96825686e-29
FDICPBiCGStab:  Solving for p, Initial residual = 0.02044496138, Final residual = 0.004074273868, No Iterations 3
FDICPBiCGStab:  Solving for p, Initial residual = 0.004029166351, Final residual = 0.003931408936, No Iterations 3
FDICPBiCGStab:  Solving for p, Initial residual = 0.004199114448, Final residual = 0.001317626551, No Iterations 3
time step continuity errors : sum local = 2.700434646e-27, global = 5.605672654e-29, cumulative = 1.357392951e-28
FDICPBiCGStab:  Solving for p, Initial residual = 0.01442562228, Final residual = 0.001752045289, No Iterations 3
FDICPBiCGStab:  Solving for p, Initial residual = 0.00174074005, Final residual = 0.001670697572, No Iterations 3
FDICPBiCGStab:  Solving for p, Initial residual = 0.001676386055, Final residual = 0.0009805675299, No Iterations 3
time step continuity errors : sum local = 2.008224336e-27, global = 8.595108575e-29, cumulative = 2.216903809e-28
ExecutionTime = 0.47 s  ClockTime = 1 s

---[precice] [0m Time window completed
---[precice] [0m Compute read mapping from mesh "Solid-Mesh-Hole1" to mesh "Fluid-Mesh-Hole1".
---[precice] [0m Mapping distance min:0 max:0.000869248 avg: 0.000235099 var: 2.982e-08 cnt: 160
---[precice] [0m Compute read mapping from mesh "Solid-Mesh-Hole2" to mesh "Fluid-Mesh-Hole2".
---[precice] [0m Mapping distance min:0 max:0.000869248 avg: 0.000235099 var: 2.982e-08 cnt: 160
---[precice] [0m iteration: 1, time-window: 2, time: 0.0001 of 10, time-window-size: 0.0001, max-timestep-length: 0.0001, ongoing: yes, time-window-complete: yes, 
Courant Number mean: 2.860692585e-24 max: 5.461256232e-16
Time = 0.0002

PIMPLE: iteration 1
DICPCG:  Solving for cellDisplacementx, Initial residual = 0, Final residual = 0, No Iterations 0
DICPCG:  Solving for cellDisplacementy, Initial residual = 0, Final residual = 0, No Iterations 0
Mesh Courant Number mean: 0 max: 0
smoothSolver:  Solving for Ux, Initial residual = 1.320064378e-05, Final residual = 7.582959474e-11, No Iterations 1
smoothSolver:  Solving for Uy, Initial residual = 3.096685347e-05, Final residual = 3.567098478e-10, No Iterations 1
FDICPBiCGStab:  Solving for p, Initial residual = 0.09061807402, Final residual = 0.004011542593, No Iterations 1
FDICPBiCGStab:  Solving for p, Initial residual = 0.003683800778, Final residual = 0.001648107646, No Iterations 3
FDICPBiCGStab:  Solving for p, Initial residual = 0.001648819865, Final residual = 0.001240238054, No Iterations 3
time step continuity errors : sum local = 2.265816439e-27, global = 1.921953883e-28, cumulative = 4.138857692e-28
FDICPBiCGStab:  Solving for p, Initial residual = 0.06250542909, Final residual = 0.002896723496, No Iterations 1
FDICPBiCGStab:  Solving for p, Initial residual = 0.002724787594, Final residual = 0.001344062669, No Iterations 3
FDICPBiCGStab:  Solving for p, Initial residual = 0.001346134855, Final residual = 0.001057968602, No Iterations 3
time step continuity errors : sum local = 1.934674949e-27, global = 1.8983134e-28, cumulative = 6.037171092e-28
FDICPBiCGStab:  Solving for p, Initial residual = 0.06236074333, Final residual = 0.002901401508, No Iterations 1
FDICPBiCGStab:  Solving for p, Initial residual = 0.002729936308, Final residual = 0.00134350026, No Iterations 3
FDICPBiCGStab:  Solving for p, Initial residual = 0.001345404534, Final residual = 0.00106865788, No Iterations 3
time step continuity errors : sum local = 1.954165971e-27, global = 1.893970487e-28, cumulative = 7.931141579e-28
PIMPLE: iteration 2
smoothSolver:  Solving for Ux, Initial residual = 2.543788522e-06, Final residual = 1.34290574e-11, No Iterations 1
smoothSolver:  Solving for Uy, Initial residual = 5.916492407e-06, Final residual = 6.302366067e-11, No Iterations 1
FDICPBiCGStab:  Solving for p, Initial residual = 0.1230659417, Final residual = 0.004539111073, No Iterations 1
FDICPBiCGStab:  Solving for p, Initial residual = 0.004050227794, Final residual = 0.001256679312, No Iterations 3
FDICPBiCGStab:  Solving for p, Initial residual = 0.001255151463, Final residual = 0.0008115096818, No Iterations 3
time step continuity errors : sum local = 1.668720978e-27, global = 2.31127724e-28, cumulative = 1.024241882e-27
FDICPBiCGStab:  Solving for p, Initial residual = 0.08396558749, Final residual = 0.003133717522, No Iterations 1
FDICPBiCGStab:  Solving for p, Initial residual = 0.002889349244, Final residual = 0.000938243895, No Iterations 3
FDICPBiCGStab:  Solving for p, Initial residual = 0.0009382247691, Final residual = 0.0005559723591, No Iterations 3
time step continuity errors : sum local = 1.144569293e-27, global = 2.302504409e-28, cumulative = 1.254492323e-27
FDICPBiCGStab:  Solving for p, Initial residual = 0.08374468059, Final residual = 0.003115460783, No Iterations 1
FDICPBiCGStab:  Solving for p, Initial residual = 0.002873247439, Final residual = 0.0009219500444, No Iterations 3
FDICPBiCGStab:  Solving for p, Initial residual = 0.0009215842324, Final residual = 0.000588355016, No Iterations 3
time step continuity errors : sum local = 1.211191435e-27, global = 2.300564514e-28, cumulative = 1.484548774e-27
PIMPLE: iteration 3
smoothSolver:  Solving for Ux, Initial residual = 8.70840984e-07, Final residual = 3.539092278e-12, No Iterations 1
smoothSolver:  Solving for Uy, Initial residual = 1.987669264e-06, Final residual = 1.672783915e-11, No Iterations 1
FDICPBiCGStab:  Solving for p, Initial residual = 0.09732121453, Final residual = 0.003373944483, No Iterations 1
FDICPBiCGStab:  Solving for p, Initial residual = 0.003071438059, Final residual = 0.0008270389835, No Iterations 3
FDICPBiCGStab:  Solving for p, Initial residual = 0.0008263959664, Final residual = 0.0005114135325, No Iterations 3
time step continuity errors : sum local = 1.08035128e-27, global = 2.371725585e-28, cumulative = 1.721721333e-27
FDICPBiCGStab:  Solving for p, Initial residual = 0.06683237006, Final residual = 0.002341519663, No Iterations 1
FDICPBiCGStab:  Solving for p, Initial residual = 0.002188538649, Final residual = 0.0006113675453, No Iterations 3
FDICPBiCGStab:  Solving for p, Initial residual = 0.0006114786762, Final residual = 0.0003416866493, No Iterations 3
time step continuity errors : sum local = 7.224317583e-28, global = 2.357348992e-28, cumulative = 1.957456232e-27
FDICPBiCGStab:  Solving for p, Initial residual = 0.06666259658, Final residual = 0.002323578202, No Iterations 1
FDICPBiCGStab:  Solving for p, Initial residual = 0.002172156738, Final residual = 0.000598541742, No Iterations 3
FDICPBiCGStab:  Solving for p, Initial residual = 0.0005985441306, Final residual = 0.0003644467142, No Iterations 3
time step continuity errors : sum local = 7.705141819e-28, global = 2.338303266e-28, cumulative = 2.191286558e-27
PIMPLE: iteration 4
smoothSolver:  Solving for Ux, Initial residual = 4.802411267e-07, Final residual = 2.148310603e-12, No Iterations 1
smoothSolver:  Solving for Uy, Initial residual = 1.073184044e-06, Final residual = 1.022979678e-11, No Iterations 1
FDICPBiCGStab:  Solving for p, Initial residual = 0.06925544823, Final residual = 0.002332973579, No Iterations 1
FDICPBiCGStab:  Solving for p, Initial residual = 0.00247187799, Final residual = 0.0004215927522, No Iterations 3
FDICPBiCGStab:  Solving for p, Initial residual = 0.0004233502032, Final residual = 0.0004734863055, No Iterations 3
time step continuity errors : sum local = 9.991600658e-28, global = 2.301124499e-28, cumulative = 2.421399008e-27
FDICPBiCGStab:  Solving for p, Initial residual = 0.009192945952, Final residual = 0.0004881839151, No Iterations 1
FDICPBiCGStab:  Solving for p, Initial residual = 0.0004912353175, Final residual = 0.0002694249276, No Iterations 3
FDICPBiCGStab:  Solving for p, Initial residual = 0.0002695127416, Final residual = 0.0002581084507, No Iterations 3
time step continuity errors : sum local = 5.429002284e-28, global = 2.293265316e-28, cumulative = 2.65072554e-27
FDICPBiCGStab:  Solving for p, Initial residual = 0.007722320831, Final residual = 0.0003695292826, No Iterations 1
FDICPBiCGStab:  Solving for p, Initial residual = 0.0003705216764, Final residual = 0.0001808815724, No Iterations 3
FDICPBiCGStab:  Solving for p, Initial residual = 0.0001811219224, Final residual = 0.00021279878, No Iterations 3
time step continuity errors : sum local = 4.474285524e-28, global = 2.239667518e-28, cumulative = 2.874692292e-27
ExecutionTime = 0.73 s  ClockTime = 1 s

---[precice] [0m Time window completed
---[precice] [0m iteration: 1, time-window: 3, time: 0.0002 of 10, time-window-size: 0.0001, max-timestep-length: 0.0001, ongoing: yes, time-window-complete: yes, 
Courant Number mean: 5.779744327e-24 max: 1.078620582e-15
Time = 0.0003

PIMPLE: iteration 1
DICPCG:  Solving for cellDisplacementx, Initial residual = 1, Final residual = 7.369047933e-09, No Iterations 45
DICPCG:  Solving for cellDisplacementy, Initial residual = 1, Final residual = 7.582991171e-09, No Iterations 39
Mesh Courant Number mean: 2.774908077e-05 max: 0.5876728599
smoothSolver:  Solving for Ux, Initial residual = 0.9999999356, Final residual = 3.732500173e-09, No Iterations 2
smoothSolver:  Solving for Uy, Initial residual = 0.999999689, Final residual = 1.482566745e-09, No Iterations 2
FDICPBiCGStab:  Solving for p, Initial residual = 1, Final residual = 0.9310394956, No Iterations 3
FDICPBiCGStab:  Solving for p, Initial residual = 0.3231410992, Final residual = 0.2285036378, No Iterations 3
FDICPBiCGStab:  Solving for p, Initial residual = 0.2337153564, Final residual = 0.1776329511, No Iterations 3
time step continuity errors : sum local = 1.901126435e-09, global = 3.476945193e-14, cumulative = 3.476945193e-14
FDICPBiCGStab:  Solving for p, Initial residual = 0.5471838968, Final residual = 0.4758739959, No Iterations 3
FDICPBiCGStab:  Solving for p, Initial residual = 0.2641105134, Final residual = 0.1908151587, No Iterations 3
FDICPBiCGStab:  Solving for p, Initial residual = 0.1930310066, Final residual = 0.1485704736, No Iterations 3
time step continuity errors : sum local = 1.552366481e-09, global = 8.897695018e-14, cumulative = 1.237464021e-13
FDICPBiCGStab:  Solving for p, Initial residual = 0.5325943675, Final residual = 0.4688918335, No Iterations 3
FDICPBiCGStab:  Solving for p, Initial residual = 0.2584900647, Final residual = 0.1901952821, No Iterations 3
FDICPBiCGStab:  Solving for p, Initial residual = 0.1907879364, Final residual = 0.1407771251, No Iterations 3
time step continuity errors : sum local = 1.476319166e-09, global = -4.828538787e-14, cumulative = 7.546101424e-14
PIMPLE: iteration 2
smoothSolver:  Solving for Ux, Initial residual = 3.867741858e-05, Final residual = 2.960527746e-09, No Iterations 1
smoothSolver:  Solving for Uy, Initial residual = 0.002707358733, Final residual = 3.329887603e-07, No Iterations 1
FDICPBiCGStab:  Solving for p, Initial residual = 0.5481158784, Final residual = 0.4482477556, No Iterations 3
FDICPBiCGStab:  Solving for p, Initial residual = 0.2543135111, Final residual = 0.2036212464, No Iterations 3
FDICPBiCGStab:  Solving for p, Initial residual = 0.1985206634, Final residual = 0.1465486134, No Iterations 3
time step continuity errors : sum local = 1.4879833e-09, global = -1.493487988e-13, cumulative = -7.388778461e-14
FDICPBiCGStab:  Solving for p, Initial residual = 0.3743420942, Final residual = 0.3320878655, No Iterations 3
FDICPBiCGStab:  Solving for p, Initial residual = 0.2289461338, Final residual = 0.1710015375, No Iterations 3
FDICPBiCGStab:  Solving for p, Initial residual = 0.1723123551, Final residual = 0.1347521267, No Iterations 3
time step continuity errors : sum local = 1.347614055e-09, global = -3.425736779e-13, cumulative = -4.164614626e-13
FDICPBiCGStab:  Solving for p, Initial residual = 0.3703261099, Final residual = 0.338818703, No Iterations 3
FDICPBiCGStab:  Solving for p, Initial residual = 0.2312797456, Final residual = 0.1727908946, No Iterations 3
FDICPBiCGStab:  Solving for p, Initial residual = 0.1745365983, Final residual = 0.1379861989, No Iterations 3
time step continuity errors : sum local = 1.383133193e-09, global = -4.253125181e-13, cumulative = -8.417739806e-13
PIMPLE: iteration 3
smoothSolver:  Solving for Ux, Initial residual = 2.082577106e-05, Final residual = 2.181802901e-09, No Iterations 1
smoothSolver:  Solving for Uy, Initial residual = 0.0002753332824, Final residual = 3.028111189e-08, No Iterations 1
FDICPBiCGStab:  Solving for p, Initial residual = 0.3676796303, Final residual = 0.3158123445, No Iterations 3
FDICPBiCGStab:  Solving for p, Initial residual = 0.2238876661, Final residual = 0.1609288739, No Iterations 3
FDICPBiCGStab:  Solving for p, Initial residual = 0.162399429, Final residual = 0.1260549181, No Iterations 3
time step continuity errors : sum local = 1.207210659e-09, global = -4.363788463e-13, cumulative = -1.278152827e-12
FDICPBiCGStab:  Solving for p, Initial residual = 0.2791147409, Final residual = 0.2516297229, No Iterations 3
FDICPBiCGStab:  Solving for p, Initial residual = 0.1972184886, Final residual = 0.1207365736, No Iterations 3
FDICPBiCGStab:  Solving for p, Initial residual = 0.1222848314, Final residual = 0.1025559169, No Iterations 3
time step continuity errors : sum local = 9.756284613e-10, global = -5.344040214e-13, cumulative = -1.812556848e-12
FDICPBiCGStab:  Solving for p, Initial residual = 0.2703691189, Final residual = 0.2408645244, No Iterations 3
FDICPBiCGStab:  Solving for p, Initial residual = 0.1889344405, Final residual = 0.1188826347, No Iterations 3
FDICPBiCGStab:  Solving for p, Initial residual = 0.1205815211, Final residual = 0.1016382636, No Iterations 3
time step continuity errors : sum local = 9.659572819e-10, global = -5.992354467e-13, cumulative = -2.411792295e-12
PIMPLE: iteration 4
smoothSolver:  Solving for Ux, Initial residual = 2.572887163e-05, Final residual = 4.494412023e-09, No Iterations 1
smoothSolver:  Solving for Uy, Initial residual = 0.0002251696366, Final residual = 4.62971177e-08, No Iterations 1
FDICPBiCGStab:  Solving for p, Initial residual = 0.1862058879, Final residual = 0.17023286, No Iterations 3
FDICPBiCGStab:  Solving for p, Initial residual = 0.1485534645, Final residual = 0.09051193692, No Iterations 3
FDICPBiCGStab:  Solving for p, Initial residual = 0.09106124542, Final residual = 0.07202316787, No Iterations 3
time step continuity errors : sum local = 7.427506949e-10, global = -7.426341974e-13, cumulative = -3.154426493e-12
FDICPBiCGStab:  Solving for p, Initial residual = 0.08587570721, Final residual = 0.07281155292, No Iterations 3
FDICPBiCGStab:  Solving for p, Initial residual = 0.07026534157, Final residual = 0.04675945449, No Iterations 3
FDICPBiCGStab:  Solving for p, Initial residual = 0.04788367797, Final residual = 0.04058601988, No Iterations 3
time step continuity errors : sum local = 4.175158913e-10, global = -1.30883531e-12, cumulative = -4.463261803e-12
FDICPBiCGStab:  Solving for p, Initial residual = 0.0511509642, Final residual = 0.04824227989, No Iterations 3
FDICPBiCGStab:  Solving for p, Initial residual = 0.04798569318, Final residual = 0.02992065177, No Iterations 3
FDICPBiCGStab:  Solving for p, Initial residual = 0.02998623146, Final residual = 0.0297613734, No Iterations 3
time step continuity errors : sum local = 3.105564741e-10, global = -1.877653729e-12, cumulative = -6.340915532e-12
ExecutionTime = 1.05 s  ClockTime = 1 s

---[precice] [0m Time window completed
---[precice] [0m iteration: 1, time-window: 4, time: 0.0003 of 10, time-window-size: 0.0001, max-timestep-length: 0.0001, ongoing: yes, time-window-complete: yes, 
Courant Number mean: 2.773671967e-05 max: 3.478694376
Time = 0.0004

PIMPLE: iteration 1
DICPCG:  Solving for cellDisplacementx, Initial residual = 0.3873744119, Final residual = 8.610042498e-09, No Iterations 43
DICPCG:  Solving for cellDisplacementy, Initial residual = 0.3333607263, Final residual = 9.654634446e-09, No Iterations 37
Mesh Courant Number mean: 2.788891504e-05 max: 0.5872551511
smoothSolver:  Solving for Ux, Initial residual = 0.001897360503, Final residual = 9.475404141e-08, No Iterations 1
smoothSolver:  Solving for Uy, Initial residual = 0.002063570927, Final residual = 8.130596682e-08, No Iterations 1
FDICPBiCGStab:  Solving for p, Initial residual = 0.5233541961, Final residual = 0.4254639359, No Iterations 3
FDICPBiCGStab:  Solving for p, Initial residual = 0.3854732744, Final residual = 0.2706640784, No Iterations 3
FDICPBiCGStab:  Solving for p, Initial residual = 0.338674561, Final residual = 0.2716309283, No Iterations 3
time step continuity errors : sum local = 1.481869889e-09, global = -3.546339503e-12, cumulative = -9.887255035e-12
FDICPBiCGStab:  Solving for p, Initial residual = 0.3940729957, Final residual = 0.366664488, No Iterations 3
FDICPBiCGStab:  Solving for p, Initial residual = 0.3332699417, Final residual = 0.2238631864, No Iterations 3
FDICPBiCGStab:  Solving for p, Initial residual = 0.2855791993, Final residual = 0.2511987639, No Iterations 3
time step continuity errors : sum local = 1.203398295e-09, global = -3.730394304e-12, cumulative = -1.361764934e-11
FDICPBiCGStab:  Solving for p, Initial residual = 0.3898436993, Final residual = 0.3606539681, No Iterations 3
FDICPBiCGStab:  Solving for p, Initial residual = 0.3280848857, Final residual = 0.2235322342, No Iterations 3
FDICPBiCGStab:  Solving for p, Initial residual = 0.2798354416, Final residual = 0.2670216646, No Iterations 3
time step continuity errors : sum local = 1.28308004e-09, global = -3.619762817e-12, cumulative = -1.723741216e-11
PIMPLE: iteration 2
smoothSolver:  Solving for Ux, Initial residual = 0.0001580691475, Final residual = 9.426326241e-09, No Iterations 1
smoothSolver:  Solving for Uy, Initial residual = 0.0002977876717, Final residual = 1.939968874e-08, No Iterations 1
FDICPBiCGStab:  Solving for p, Initial residual = 0.5507883312, Final residual = 0.5166018858, No Iterations 3
FDICPBiCGStab:  Solving for p, Initial residual = 0.4402285663, Final residual = 0.2976394736, No Iterations 3
FDICPBiCGStab:  Solving for p, Initial residual = 0.3950482325, Final residual = 0.3711370489, No Iterations 3
time step continuity errors : sum local = 1.723636783e-09, global = -4.054927627e-12, cumulative = -2.129233978e-11
FDICPBiCGStab:  Solving for p, Initial residual = 0.5023840662, Final residual = 0.4547839104, No Iterations 3
FDICPBiCGStab:  Solving for p, Initial residual = 0.4088156384, Final residual = 0.2708163155, No Iterations 3
FDICPBiCGStab:  Solving for p, Initial residual = 0.3589180598, Final residual = 0.2972260792, No Iterations 3
time step continuity errors : sum local = 1.205700637e-09, global = -4.120232146e-12, cumulative = -2.541257193e-11
FDICPBiCGStab:  Solving for p, Initial residual = 0.4867649688, Final residual = 0.4516070403, No Iterations 3
FDICPBiCGStab:  Solving for p, Initial residual = 0.4030922237, Final residual = 0.2652221503, No Iterations 3
FDICPBiCGStab:  Solving for p, Initial residual = 0.3471290804, Final residual = 0.299811897, No Iterations 3
time step continuity errors : sum local = 1.204394407e-09, global = -4.053241522e-12, cumulative = -2.946581345e-11
PIMPLE: iteration 3
smoothSolver:  Solving for Ux, Initial residual = 1.35970234e-05, Final residual = 3.984588083e-10, No Iterations 1
smoothSolver:  Solving for Uy, Initial residual = 4.592920805e-05, Final residual = 3.757741371e-09, No Iterations 1
FDICPBiCGStab:  Solving for p, Initial residual = 0.5132686975, Final residual = 0.4739065191, No Iterations 3
FDICPBiCGStab:  Solving for p, Initial residual = 0.4221376598, Final residual = 0.2728316524, No Iterations 3
FDICPBiCGStab:  Solving for p, Initial residual = 0.359124337, Final residual = 0.3252960385, No Iterations 3
time step continuity errors : sum local = 1.302393559e-09, global = -4.147864183e-12, cumulative = -3.361367763e-11
FDICPBiCGStab:  Solving for p, Initial residual = 0.465991122, Final residual = 0.4236111558, No Iterations 3
FDICPBiCGStab:  Solving for p, Initial residual = 0.3929275873, Final residual = 0.2529831811, No Iterations 3
FDICPBiCGStab:  Solving for p, Initial residual = 0.3235769042, Final residual = 0.2678440101, No Iterations 3
time step continuity errors : sum local = 9.749498841e-10, global = -4.023945677e-12, cumulative = -3.763762331e-11
FDICPBiCGStab:  Solving for p, Initial residual = 0.455428299, Final residual = 0.4180480266, No Iterations 3
FDICPBiCGStab:  Solving for p, Initial residual = 0.3863286002, Final residual = 0.2490198085, No Iterations 3
FDICPBiCGStab:  Solving for p, Initial residual = 0.3161642424, Final residual = 0.2633531074, No Iterations 3
time step continuity errors : sum local = 9.471368448e-10, global = -3.918562277e-12, cumulative = -4.155618559e-11
PIMPLE: iteration 4
smoothSolver:  Solving for Ux, Initial residual = 5.639945951e-06, Final residual = 1.543225117e-09, No Iterations 1
smoothSolver:  Solving for Uy, Initial residual = 2.322834315e-05, Final residual = 5.212345856e-09, No Iterations 1
FDICPBiCGStab:  Solving for p, Initial residual = 0.3802505213, Final residual = 0.2962967247, No Iterations 3
FDICPBiCGStab:  Solving for p, Initial residual = 0.3224599784, Final residual = 0.2122251119, No Iterations 3
FDICPBiCGStab:  Solving for p, Initial residual = 0.2609580431, Final residual = 0.200382111, No Iterations 3
time step continuity errors : sum local = 8.038979923e-10, global = -3.797736718e-12, cumulative = -4.535392231e-11
FDICPBiCGStab:  Solving for p, Initial residual = 0.2357362867, Final residual = 0.206778221, No Iterations 3
FDICPBiCGStab:  Solving for p, Initial residual = 0.2257908472, Final residual = 0.1400694729, No Iterations 3
FDICPBiCGStab:  Solving for p, Initial residual = 0.1447159286, Final residual = 0.1276805375, No Iterations 3
time step continuity errors : sum local = 4.51959826e-10, global = -3.053521021e-12, cumulative = -4.840744333e-11
FDICPBiCGStab:  Solving for p, Initial residual = 0.162588359, Final residual = 0.1253187557, No Iterations 3
FDICPBiCGStab:  Solving for p, Initial residual = 0.1284440013, Final residual = 0.101122221, No Iterations 3
FDICPBiCGStab:  Solving for p, Initial residual = 0.107260341, Final residual = 0.07520402474, No Iterations 3
time step continuity errors : sum local = 2.446752986e-10, global = -2.413437208e-12, cumulative = -5.082088053e-11
ExecutionTime = 1.36 s  ClockTime = 1 s

---[precice] [0m Time window completed
---[precice] [0m iteration: 1, time-window: 5, time: 0.0004 of 10, time-window-size: 0.0001, max-timestep-length: 0.0001, ongoing: yes, time-window-complete: yes, 
Courant Number mean: 2.787781105e-05 max: 3.510451189
Time = 0.0005

PIMPLE: iteration 1
DICPCG:  Solving for cellDisplacementx, Initial residual = 0.2372644053, Final residual = 8.596927612e-09, No Iterations 42
DICPCG:  Solving for cellDisplacementy, Initial residual = 0.2000296398, Final residual = 8.80737738e-09, No Iterations 36
Mesh Courant Number mean: 2.743333752e-05 max: 0.5883096147
smoothSolver:  Solving for Ux, Initial residual = 7.256144732e-05, Final residual = 7.372534025e-10, No Iterations 1
smoothSolver:  Solving for Uy, Initial residual = 0.000214409862, Final residual = 2.382262295e-09, No Iterations 1
FDICPBiCGStab:  Solving for p, Initial residual = 0.2784280236, Final residual = 0.2129551012, No Iterations 3
FDICPBiCGStab:  Solving for p, Initial residual = 0.1942265484, Final residual = 0.1271863085, No Iterations 3
FDICPBiCGStab:  Solving for p, Initial residual = 0.1433357408, Final residual = 0.1425080628, No Iterations 3
time step continuity errors : sum local = 3.831568756e-10, global = -1.796629483e-12, cumulative = -5.261751002e-11
FDICPBiCGStab:  Solving for p, Initial residual = 0.2188161786, Final residual = 0.1965456107, No Iterations 3
FDICPBiCGStab:  Solving for p, Initial residual = 0.1756995273, Final residual = 0.09557147776, No Iterations 3
FDICPBiCGStab:  Solving for p, Initial residual = 0.1082161438, Final residual = 0.1039836129, No Iterations 3
time step continuity errors : sum local = 2.741492862e-10, global = -1.511304182e-12, cumulative = -5.41288142e-11
FDICPBiCGStab:  Solving for p, Initial residual = 0.2151654799, Final residual = 0.187812332, No Iterations 3
FDICPBiCGStab:  Solving for p, Initial residual = 0.1680029564, Final residual = 0.09607641933, No Iterations 3
FDICPBiCGStab:  Solving for p, Initial residual = 0.1085887173, Final residual = 0.1022522055, No Iterations 3
time step continuity errors : sum local = 2.696132429e-10, global = -1.536884444e-12, cumulative = -5.566569864e-11
PIMPLE: iteration 2
smoothSolver:  Solving for Ux, Initial residual = 1.208800993e-05, Final residual = 1.92745833e-10, No Iterations 1
smoothSolver:  Solving for Uy, Initial residual = 3.949543705e-05, Final residual = 6.152812417e-10, No Iterations 1
FDICPBiCGStab:  Solving for p, Initial residual = 0.2389944375, Final residual = 0.2027015815, No Iterations 3
FDICPBiCGStab:  Solving for p, Initial residual = 0.184443288, Final residual = 0.1145892605, No Iterations 3
FDICPBiCGStab:  Solving for p, Initial residual = 0.1295492009, Final residual = 0.1175823281, No Iterations 3
time step continuity errors : sum local = 3.03282982e-10, global = -1.430710352e-12, cumulative = -5.7096409e-11
FDICPBiCGStab:  Solving for p, Initial residual = 0.1922188759, Final residual = 0.165799732, No Iterations 3
FDICPBiCGStab:  Solving for p, Initial residual = 0.1521390388, Final residual = 0.08638374486, No Iterations 3
FDICPBiCGStab:  Solving for p, Initial residual = 0.09463403101, Final residual = 0.08855772016, No Iterations 3
time step continuity errors : sum local = 2.287917117e-10, global = -1.153522117e-12, cumulative = -5.824993111e-11
FDICPBiCGStab:  Solving for p, Initial residual = 0.1874328194, Final residual = 0.1636296262, No Iterations 3
FDICPBiCGStab:  Solving for p, Initial residual = 0.1493948556, Final residual = 0.0871383244, No Iterations 3
FDICPBiCGStab:  Solving for p, Initial residual = 0.09570817101, Final residual = 0.08723342906, No Iterations 3
time step continuity errors : sum local = 2.256055815e-10, global = -1.161313349e-12, cumulative = -5.941124446e-11
PIMPLE: iteration 3
smoothSolver:  Solving for Ux, Initial residual = 2.948278481e-06, Final residual = 1.296860022e-10, No Iterations 1
smoothSolver:  Solving for Uy, Initial residual = 7.803250913e-06, Final residual = 1.483956957e-10, No Iterations 1
FDICPBiCGStab:  Solving for p, Initial residual = 0.1922852712, Final residual = 0.1511821068, No Iterations 3
FDICPBiCGStab:  Solving for p, Initial residual = 0.1422948942, Final residual = 0.0887371571, No Iterations 3
FDICPBiCGStab:  Solving for p, Initial residual = 0.09529917379, Final residual = 0.08455352191, No Iterations 3
time step continuity errors : sum local = 2.131464807e-10, global = -1.055828647e-12, cumulative = -6.046707311e-11
FDICPBiCGStab:  Solving for p, Initial residual = 0.1541886669, Final residual = 0.1188517664, No Iterations 3
FDICPBiCGStab:  Solving for p, Initial residual = 0.1140086498, Final residual = 0.06599542589, No Iterations 3
FDICPBiCGStab:  Solving for p, Initial residual = 0.0680937051, Final residual = 0.05738786769, No Iterations 3
time step continuity errors : sum local = 1.474661704e-10, global = -8.221780999e-13, cumulative = -6.128925121e-11
FDICPBiCGStab:  Solving for p, Initial residual = 0.1489063062, Final residual = 0.1147459409, No Iterations 3
FDICPBiCGStab:  Solving for p, Initial residual = 0.1091517697, Final residual = 0.06560254504, No Iterations 3
FDICPBiCGStab:  Solving for p, Initial residual = 0.06824928625, Final residual = 0.06007563562, No Iterations 3
time step continuity errors : sum local = 1.537142681e-10, global = -7.357631695e-13, cumulative = -6.202501438e-11
PIMPLE: iteration 4
smoothSolver:  Solving for Ux, Initial residual = 8.698446895e-06, Final residual = 5.007442367e-10, No Iterations 1
smoothSolver:  Solving for Uy, Initial residual = 2.012511172e-05, Final residual = 5.579950908e-10, No Iterations 1
FDICPBiCGStab:  Solving for p, Initial residual = 0.2366358765, Final residual = 0.07978083494, No Iterations 3
FDICPBiCGStab:  Solving for p, Initial residual = 0.09488953111, Final residual = 0.04264697865, No Iterations 3
FDICPBiCGStab:  Solving for p, Initial residual = 0.04571290179, Final residual = 0.02133673579, No Iterations 3
time step continuity errors : sum local = 5.501116436e-11, global = -4.079597471e-13, cumulative = -6.243297413e-11
FDICPBiCGStab:  Solving for p, Initial residual = 0.05855590568, Final residual = 0.02631543209, No Iterations 3
FDICPBiCGStab:  Solving for p, Initial residual = 0.0271331461, Final residual = 0.01471227197, No Iterations 3
FDICPBiCGStab:  Solving for p, Initial residual = 0.01424084242, Final residual = 0.006339862048, No Iterations 3
time step continuity errors : sum local = 1.60997337e-11, global = -1.673730838e-14, cumulative = -6.244971143e-11
FDICPBiCGStab:  Solving for p, Initial residual = 0.03953120606, Final residual = 0.01415955673, No Iterations 3
FDICPBiCGStab:  Solving for p, Initial residual = 0.01452616808, Final residual = 0.008260191446, No Iterations 3
FDICPBiCGStab:  Solving for p, Initial residual = 0.008963607395, Final residual = 0.003748694008, No Iterations 3
time step continuity errors : sum local = 9.460469906e-12, global = 1.024951453e-13, cumulative = -6.234721629e-11
ExecutionTime = 1.73 s  ClockTime = 2 s

---[precice] [0m Time window completed
---[precice] [0m iteration: 1, time-window: 6, time: 0.0005 of 10, time-window-size: 0.0001, max-timestep-length: 0.0001, ongoing: yes, time-window-complete: yes, 
Courant Number mean: 2.7421001e-05 max: 3.347315749
Time = 0.0006

PIMPLE: iteration 1
DICPCG:  Solving for cellDisplacementx, Initial residual = 0.1706377747, Final residual = 6.840003487e-09, No Iterations 42
DICPCG:  Solving for cellDisplacementy, Initial residual = 0.1428844416, Final residual = 8.770141007e-09, No Iterations 34
Mesh Courant Number mean: 2.793001272e-05 max: 0.5893815828
smoothSolver:  Solving for Ux, Initial residual = 8.234594678e-05, Final residual = 1.798821107e-09, No Iterations 1
smoothSolver:  Solving for Uy, Initial residual = 9.826989294e-05, Final residual = 7.584512819e-10, No Iterations 1
FDICPBiCGStab:  Solving for p, Initial residual = 0.2180190878, Final residual = 0.05994501348, No Iterations 3
FDICPBiCGStab:  Solving for p, Initial residual = 0.05418327123, Final residual = 0.04271269853, No Iterations 3
FDICPBiCGStab:  Solving for p, Initial residual = 0.04378638086, Final residual = 0.01539160728, No Iterations 3
time step continuity errors : sum local = 3.27484685e-11, global = 1.526262192e-12, cumulative = -6.08209541e-11
FDICPBiCGStab:  Solving for p, Initial residual = 0.1549944688, Final residual = 0.04528041636, No Iterations 3
FDICPBiCGStab:  Solving for p, Initial residual = 0.04213328934, Final residual = 0.0330153755, No Iterations 3
FDICPBiCGStab:  Solving for p, Initial residual = 0.03364220906, Final residual = 0.01092676551, No Iterations 3
time step continuity errors : sum local = 2.307162854e-11, global = 1.479833783e-12, cumulative = -5.934112031e-11
FDICPBiCGStab:  Solving for p, Initial residual = 0.1542062338, Final residual = 0.04427059742, No Iterations 3
FDICPBiCGStab:  Solving for p, Initial residual = 0.04119185502, Final residual = 0.03217433967, No Iterations 3
FDICPBiCGStab:  Solving for p, Initial residual = 0.03276043685, Final residual = 0.01091472038, No Iterations 3
time step continuity errors : sum local = 2.302462111e-11, global = 1.459144398e-12, cumulative = -5.788197591e-11
PIMPLE: iteration 2
smoothSolver:  Solving for Ux, Initial residual = 4.636199858e-05, Final residual = 1.55989234e-09, No Iterations 1
smoothSolver:  Solving for Uy, Initial residual = 2.198564522e-05, Final residual = 3.513558338e-10, No Iterations 1
FDICPBiCGStab:  Solving for p, Initial residual = 0.1690115527, Final residual = 0.06407034476, No Iterations 3
FDICPBiCGStab:  Solving for p, Initial residual = 0.06088220297, Final residual = 0.04656049794, No Iterations 3
FDICPBiCGStab:  Solving for p, Initial residual = 0.04641365032, Final residual = 0.0144877126, No Iterations 3
time step continuity errors : sum local = 2.929908745e-11, global = 1.855315455e-12, cumulative = -5.602666046e-11
FDICPBiCGStab:  Solving for p, Initial residual = 0.1238188228, Final residual = 0.04893386916, No Iterations 3
FDICPBiCGStab:  Solving for p, Initial residual = 0.04710707492, Final residual = 0.03555365669, No Iterations 3
FDICPBiCGStab:  Solving for p, Initial residual = 0.03514365433, Final residual = 0.01090745843, No Iterations 3
time step continuity errors : sum local = 2.183776556e-11, global = 1.785753021e-12, cumulative = -5.424090744e-11
FDICPBiCGStab:  Solving for p, Initial residual = 0.1229709961, Final residual = 0.0479981417, No Iterations 3
FDICPBiCGStab:  Solving for p, Initial residual = 0.04619936626, Final residual = 0.03441098963, No Iterations 3
FDICPBiCGStab:  Solving for p, Initial residual = 0.03395280078, Final residual = 0.01051340501, No Iterations 3
time step continuity errors : sum local = 2.103390257e-11, global = 1.765405526e-12, cumulative = -5.247550191e-11
PIMPLE: iteration 3
smoothSolver:  Solving for Ux, Initial residual = 8.000775868e-06, Final residual = 6.570913853e-10, No Iterations 1
smoothSolver:  Solving for Uy, Initial residual = 2.848230956e-06, Final residual = 1.537634437e-10, No Iterations 1
FDICPBiCGStab:  Solving for p, Initial residual = 0.1256935496, Final residual = 0.0491503552, No Iterations 3
FDICPBiCGStab:  Solving for p, Initial residual = 0.04779652009, Final residual = 0.03159321741, No Iterations 3
FDICPBiCGStab:  Solving for p, Initial residual = 0.03052395754, Final residual = 0.01008923843, No Iterations 3
time step continuity errors : sum local = 1.987309747e-11, global = 1.842418718e-12, cumulative = -5.063308319e-11
FDICPBiCGStab:  Solving for p, Initial residual = 0.09276067206, Final residual = 0.03707599137, No Iterations 3
FDICPBiCGStab:  Solving for p, Initial residual = 0.03628016212, Final residual = 0.02302318911, No Iterations 3
FDICPBiCGStab:  Solving for p, Initial residual = 0.02195419507, Final residual = 0.007004530152, No Iterations 3
time step continuity errors : sum local = 1.370647708e-11, global = 1.772620249e-12, cumulative = -4.886046295e-11
FDICPBiCGStab:  Solving for p, Initial residual = 0.09193502196, Final residual = 0.0363850338, No Iterations 3
FDICPBiCGStab:  Solving for p, Initial residual = 0.03559010662, Final residual = 0.02319468117, No Iterations 3
FDICPBiCGStab:  Solving for p, Initial residual = 0.02225225765, Final residual = 0.007043742937, No Iterations 3
time step continuity errors : sum local = 1.378264536e-11, global = 1.757157021e-12, cumulative = -4.710330592e-11
PIMPLE: iteration 4
smoothSolver:  Solving for Ux, Initial residual = 1.200205576e-05, Final residual = 6.173335457e-10, No Iterations 1
smoothSolver:  Solving for Uy, Initial residual = 4.667676071e-06, Final residual = 2.151262573e-10, No Iterations 1
FDICPBiCGStab:  Solving for p, Initial residual = 0.200301073, Final residual = 0.03095182805, No Iterations 3
FDICPBiCGStab:  Solving for p, Initial residual = 0.03728404214, Final residual = 0.02400913895, No Iterations 3
FDICPBiCGStab:  Solving for p, Initial residual = 0.02524406651, Final residual = 0.01062667045, No Iterations 3
time step continuity errors : sum local = 1.973061485e-11, global = 1.790213795e-12, cumulative = -4.531309213e-11
FDICPBiCGStab:  Solving for p, Initial residual = 0.05276304902, Final residual = 0.01153821498, No Iterations 3
FDICPBiCGStab:  Solving for p, Initial residual = 0.01201387221, Final residual = 0.009524219678, No Iterations 3
FDICPBiCGStab:  Solving for p, Initial residual = 0.009941979497, Final residual = 0.0034922329, No Iterations 3
time step continuity errors : sum local = 6.271107252e-12, global = 1.600276134e-12, cumulative = -4.371281599e-11
FDICPBiCGStab:  Solving for p, Initial residual = 0.03718063754, Final residual = 0.005990753056, No Iterations 3
FDICPBiCGStab:  Solving for p, Initial residual = 0.006207622937, Final residual = 0.00646020022, No Iterations 3
FDICPBiCGStab:  Solving for p, Initial residual = 0.006773564632, Final residual = 0.003093001829, No Iterations 3
time step continuity errors : sum local = 5.507432945e-12, global = 1.546550409e-12, cumulative = -4.216626559e-11
ExecutionTime = 2.05 s  ClockTime = 2 s

---[precice] [0m Time window completed
---[precice] [0m iteration: 1, time-window: 7, time: 0.0006 of 10, time-window-size: 0.0001, max-timestep-length: 0.0001, ongoing: yes, time-window-complete: yes, 
Courant Number mean: 2.791745747e-05 max: 3.229147837
Time = 0.0007

PIMPLE: iteration 1
DICPCG:  Solving for cellDisplacementx, Initial residual = 0.1331317177, Final residual = 8.958536672e-09, No Iterations 40
DICPCG:  Solving for cellDisplacementy, Initial residual = 0.1111372317, Final residual = 9.58395917e-09, No Iterations 34
Mesh Courant Number mean: 2.60100805e-05 max: 0.5904655286
smoothSolver:  Solving for Ux, Initial residual = 4.034642128e-05, Final residual = 1.406623086e-09, No Iterations 1
smoothSolver:  Solving for Uy, Initial residual = 2.538498856e-05, Final residual = 5.060205274e-10, No Iterations 1
FDICPBiCGStab:  Solving for p, Initial residual = 0.2072498035, Final residual = 0.01212646088, No Iterations 1
FDICPBiCGStab:  Solving for p, Initial residual = 0.01044724312, Final residual = 0.005288148592, No Iterations 3
FDICPBiCGStab:  Solving for p, Initial residual = 0.005302096688, Final residual = 0.003080679052, No Iterations 3
time step continuity errors : sum local = 5.650427548e-12, global = 2.426409667e-12, cumulative = -3.973985592e-11
FDICPBiCGStab:  Solving for p, Initial residual = 0.1410292065, Final residual = 0.008700092157, No Iterations 1
FDICPBiCGStab:  Solving for p, Initial residual = 0.007885018877, Final residual = 0.004132796545, No Iterations 3
FDICPBiCGStab:  Solving for p, Initial residual = 0.004140600719, Final residual = 0.002526332317, No Iterations 3
time step continuity errors : sum local = 4.639768051e-12, global = 2.391249234e-12, cumulative = -3.734860669e-11
FDICPBiCGStab:  Solving for p, Initial residual = 0.1403173163, Final residual = 0.0085649133, No Iterations 1
FDICPBiCGStab:  Solving for p, Initial residual = 0.007768235761, Final residual = 0.004036960845, No Iterations 3
FDICPBiCGStab:  Solving for p, Initial residual = 0.004047052962, Final residual = 0.002477862955, No Iterations 3
time step continuity errors : sum local = 4.549462328e-12, global = 2.383125136e-12, cumulative = -3.496548155e-11
PIMPLE: iteration 2
smoothSolver:  Solving for Ux, Initial residual = 1.664013562e-05, Final residual = 8.272896469e-10, No Iterations 1
smoothSolver:  Solving for Uy, Initial residual = 6.601388326e-06, Final residual = 2.356271708e-10, No Iterations 1
FDICPBiCGStab:  Solving for p, Initial residual = 0.139400587, Final residual = 0.01058249776, No Iterations 1
FDICPBiCGStab:  Solving for p, Initial residual = 0.009723522098, Final residual = 0.004949237211, No Iterations 3
FDICPBiCGStab:  Solving for p, Initial residual = 0.004984719192, Final residual = 0.004060521415, No Iterations 3
time step continuity errors : sum local = 7.252093831e-12, global = 2.618639562e-12, cumulative = -3.234684199e-11
FDICPBiCGStab:  Solving for p, Initial residual = 0.09833733702, Final residual = 0.007930117755, No Iterations 1
FDICPBiCGStab:  Solving for p, Initial residual = 0.007488869859, Final residual = 0.004022497934, No Iterations 3
FDICPBiCGStab:  Solving for p, Initial residual = 0.004053902421, Final residual = 0.003548258884, No Iterations 3
time step continuity errors : sum local = 6.33764058e-12, global = 2.538369995e-12, cumulative = -2.980847199e-11
FDICPBiCGStab:  Solving for p, Initial residual = 0.09771870936, Final residual = 0.007708647183, No Iterations 1
FDICPBiCGStab:  Solving for p, Initial residual = 0.007287970693, Final residual = 0.003839394917, No Iterations 3
FDICPBiCGStab:  Solving for p, Initial residual = 0.00387007713, Final residual = 0.003457115678, No Iterations 3
time step continuity errors : sum local = 6.170731535e-12, global = 2.529956443e-12, cumulative = -2.727851555e-11
PIMPLE: iteration 3
smoothSolver:  Solving for Ux, Initial residual = 4.702426012e-06, Final residual = 4.314879758e-10, No Iterations 1
smoothSolver:  Solving for Uy, Initial residual = 1.439569561e-06, Final residual = 1.229360662e-10, No Iterations 1
FDICPBiCGStab:  Solving for p, Initial residual = 0.09913054502, Final residual = 0.009257006128, No Iterations 1
FDICPBiCGStab:  Solving for p, Initial residual = 0.008802767829, Final residual = 0.004586470518, No Iterations 3
FDICPBiCGStab:  Solving for p, Initial residual = 0.004628079752, Final residual = 0.004369622067, No Iterations 3
time step continuity errors : sum local = 7.712626708e-12, global = 2.628035408e-12, cumulative = -2.465048014e-11
FDICPBiCGStab:  Solving for p, Initial residual = 0.07147712637, Final residual = 0.005815095947, No Iterations 2
FDICPBiCGStab:  Solving for p, Initial residual = 0.005643083576, Final residual = 0.003884545304, No Iterations 3
FDICPBiCGStab:  Solving for p, Initial residual = 0.003901700507, Final residual = 0.003206034621, No Iterations 3
time step continuity errors : sum local = 5.655458307e-12, global = 2.576569186e-12, cumulative = -2.207391095e-11
FDICPBiCGStab:  Solving for p, Initial residual = 0.07067582968, Final residual = 0.005715038023, No Iterations 2
FDICPBiCGStab:  Solving for p, Initial residual = 0.005545263122, Final residual = 0.003701214461, No Iterations 3
FDICPBiCGStab:  Solving for p, Initial residual = 0.003716775741, Final residual = 0.003074532433, No Iterations 3
time step continuity errors : sum local = 5.421492163e-12, global = 2.555831228e-12, cumulative = -1.951807973e-11
PIMPLE: iteration 4
smoothSolver:  Solving for Ux, Initial residual = 1.538098692e-06, Final residual = 5.544016164e-10, No Iterations 1
smoothSolver:  Solving for Uy, Initial residual = 4.216308617e-07, Final residual = 1.620016808e-10, No Iterations 1
FDICPBiCGStab:  Solving for p, Initial residual = 0.1868767249, Final residual = 0.01103917016, No Iterations 1
FDICPBiCGStab:  Solving for p, Initial residual = 0.01335774776, Final residual = 0.007796979027, No Iterations 3
FDICPBiCGStab:  Solving for p, Initial residual = 0.00787190555, Final residual = 0.007261766716, No Iterations 3
time step continuity errors : sum local = 1.197442165e-11, global = 2.55343914e-12, cumulative = -1.696464059e-11
FDICPBiCGStab:  Solving for p, Initial residual = 0.04678272273, Final residual = 0.004855278847, No Iterations 3
FDICPBiCGStab:  Solving for p, Initial residual = 0.005115419982, Final residual = 0.005074278265, No Iterations 3
FDICPBiCGStab:  Solving for p, Initial residual = 0.005078020083, Final residual = 0.003024265487, No Iterations 3
time step continuity errors : sum local = 4.882236945e-12, global = 2.443917362e-12, cumulative = -1.452072323e-11
FDICPBiCGStab:  Solving for p, Initial residual = 0.03377347675, Final residual = 0.003275760625, No Iterations 3
FDICPBiCGStab:  Solving for p, Initial residual = 0.003406040625, Final residual = 0.003538418169, No Iterations 3
FDICPBiCGStab:  Solving for p, Initial residual = 0.0037016056, Final residual = 0.002033306461, No Iterations 3
time step continuity errors : sum local = 3.257860925e-12, global = 2.357479868e-12, cumulative = -1.216324336e-11
ExecutionTime = 2.35 s  ClockTime = 2 s

---[precice] [0m Time window completed
---[precice] [0m iteration: 1, time-window: 8, time: 0.0007 of 10, time-window-size: 0.0001, max-timestep-length: 0.0001, ongoing: yes, time-window-complete: yes, 
Courant Number mean: 2.59973487e-05 max: 3.111987777
Time = 0.0008

PIMPLE: iteration 1
DICPCG:  Solving for cellDisplacementx, Initial residual = 0.1090819362, Final residual = 8.7368107e-09, No Iterations 40
DICPCG:  Solving for cellDisplacementy, Initial residual = 0.09093488066, Final residual = 8.082666262e-09, No Iterations 33
Mesh Courant Number mean: 2.762911124e-05 max: 0.5915614116
smoothSolver:  Solving for Ux, Initial residual = 4.118300013e-05, Final residual = 2.088378905e-09, No Iterations 1
smoothSolver:  Solving for Uy, Initial residual = 1.250879599e-05, Final residual = 4.668472873e-10, No Iterations 1
FDICPBiCGStab:  Solving for p, Initial residual = 0.2203059228, Final residual = 0.01036460452, No Iterations 1
FDICPBiCGStab:  Solving for p, Initial residual = 0.008829275166, Final residual = 0.004539775223, No Iterations 3
FDICPBiCGStab:  Solving for p, Initial residual = 0.004542531783, Final residual = 0.003793937642, No Iterations 3
time step continuity errors : sum local = 6.428580236e-12, global = 2.842480194e-12, cumulative = -9.320763164e-12
FDICPBiCGStab:  Solving for p, Initial residual = 0.1490186174, Final residual = 0.007369138421, No Iterations 1
FDICPBiCGStab:  Solving for p, Initial residual = 0.006631235452, Final residual = 0.003840704448, No Iterations 3
FDICPBiCGStab:  Solving for p, Initial residual = 0.003849329676, Final residual = 0.003358256324, No Iterations 3
time step continuity errors : sum local = 5.69946873e-12, global = 2.805080053e-12, cumulative = -6.51568311e-12
FDICPBiCGStab:  Solving for p, Initial residual = 0.1483782597, Final residual = 0.007326631045, No Iterations 1
FDICPBiCGStab:  Solving for p, Initial residual = 0.00659719538, Final residual = 0.00374660567, No Iterations 3
FDICPBiCGStab:  Solving for p, Initial residual = 0.003752450818, Final residual = 0.003296029699, No Iterations 3
time step continuity errors : sum local = 5.591439842e-12, global = 2.795267745e-12, cumulative = -3.720415366e-12
PIMPLE: iteration 2
smoothSolver:  Solving for Ux, Initial residual = 2.170051875e-05, Final residual = 1.612968324e-09, No Iterations 1
smoothSolver:  Solving for Uy, Initial residual = 3.233510695e-06, Final residual = 2.238328586e-10, No Iterations 1
FDICPBiCGStab:  Solving for p, Initial residual = 0.1453208615, Final residual = 0.008136315853, No Iterations 1
FDICPBiCGStab:  Solving for p, Initial residual = 0.007439953954, Final residual = 0.002957973779, No Iterations 3
FDICPBiCGStab:  Solving for p, Initial residual = 0.002993708683, Final residual = 0.003346820012, No Iterations 3
time step continuity errors : sum local = 5.541742951e-12, global = 2.963833959e-12, cumulative = -7.565814069e-13
FDICPBiCGStab:  Solving for p, Initial residual = 0.1017451563, Final residual = 0.006101346683, No Iterations 1
FDICPBiCGStab:  Solving for p, Initial residual = 0.00575755906, Final residual = 0.002581962588, No Iterations 3
FDICPBiCGStab:  Solving for p, Initial residual = 0.002616103408, Final residual = 0.003327284212, No Iterations 3
time step continuity errors : sum local = 5.512970172e-12, global = 2.888552878e-12, cumulative = 2.131971471e-12
FDICPBiCGStab:  Solving for p, Initial residual = 0.1012587762, Final residual = 0.006001841038, No Iterations 1
FDICPBiCGStab:  Solving for p, Initial residual = 0.005669662111, Final residual = 0.002455507465, No Iterations 3
FDICPBiCGStab:  Solving for p, Initial residual = 0.002488910835, Final residual = 0.003273563478, No Iterations 3
time step continuity errors : sum local = 5.418126034e-12, global = 2.87097461e-12, cumulative = 5.002946081e-12
PIMPLE: iteration 3
smoothSolver:  Solving for Ux, Initial residual = 7.366461604e-06, Final residual = 1.191666654e-09, No Iterations 1
smoothSolver:  Solving for Uy, Initial residual = 6.434750017e-07, Final residual = 1.192948906e-10, No Iterations 1
FDICPBiCGStab:  Solving for p, Initial residual = 0.1005028683, Final residual = 0.006989357085, No Iterations 1
FDICPBiCGStab:  Solving for p, Initial residual = 0.006633243545, Final residual = 0.002405856619, No Iterations 3
FDICPBiCGStab:  Solving for p, Initial residual = 0.002442811687, Final residual = 0.002392617716, No Iterations 3
time step continuity errors : sum local = 3.918085929e-12, global = 2.966787424e-12, cumulative = 7.969733505e-12
FDICPBiCGStab:  Solving for p, Initial residual = 0.07175427671, Final residual = 0.005440250853, No Iterations 1
FDICPBiCGStab:  Solving for p, Initial residual = 0.005265547895, Final residual = 0.002135265863, No Iterations 3
FDICPBiCGStab:  Solving for p, Initial residual = 0.002164910831, Final residual = 0.002453939709, No Iterations 3
time step continuity errors : sum local = 4.020486094e-12, global = 2.926454387e-12, cumulative = 1.089618789e-11
FDICPBiCGStab:  Solving for p, Initial residual = 0.07135383514, Final residual = 0.005423530545, No Iterations 1
FDICPBiCGStab:  Solving for p, Initial residual = 0.005251450904, Final residual = 0.002081852558, No Iterations 3
FDICPBiCGStab:  Solving for p, Initial residual = 0.002110711101, Final residual = 0.002453308954, No Iterations 3
time step continuity errors : sum local = 4.017807117e-12, global = 2.913410371e-12, cumulative = 1.380959826e-11
PIMPLE: iteration 4
smoothSolver:  Solving for Ux, Initial residual = 2.310803321e-06, Final residual = 2.035131361e-09, No Iterations 1
smoothSolver:  Solving for Uy, Initial residual = 1.356426647e-07, Final residual = 1.529854845e-10, No Iterations 1
FDICPBiCGStab:  Solving for p, Initial residual = 0.1838753849, Final residual = 0.009235644357, No Iterations 1
FDICPBiCGStab:  Solving for p, Initial residual = 0.01119912487, Final residual = 0.004612197433, No Iterations 3
FDICPBiCGStab:  Solving for p, Initial residual = 0.004679275485, Final residual = 0.004356508606, No Iterations 3
time step continuity errors : sum local = 6.634771732e-12, global = 2.910191391e-12, cumulative = 1.671978965e-11
FDICPBiCGStab:  Solving for p, Initial residual = 0.04097463564, Final residual = 0.00387026473, No Iterations 2
FDICPBiCGStab:  Solving for p, Initial residual = 0.004034553061, Final residual = 0.003154771361, No Iterations 3
FDICPBiCGStab:  Solving for p, Initial residual = 0.003173610845, Final residual = 0.002522872056, No Iterations 3
time step continuity errors : sum local = 3.809337726e-12, global = 2.806089492e-12, cumulative = 1.952587915e-11
FDICPBiCGStab:  Solving for p, Initial residual = 0.03034328922, Final residual = 0.002635218785, No Iterations 2
FDICPBiCGStab:  Solving for p, Initial residual = 0.002726889281, Final residual = 0.002378141665, No Iterations 3
FDICPBiCGStab:  Solving for p, Initial residual = 0.002387844485, Final residual = 0.002197893869, No Iterations 3
time step continuity errors : sum local = 3.325802169e-12, global = 2.731553771e-12, cumulative = 2.225743292e-11
ExecutionTime = 2.67 s  ClockTime = 3 s

---[precice] [0m Time window completed
---[precice] [0m iteration: 1, time-window: 9, time: 0.0008 of 10, time-window-size: 0.0001, max-timestep-length: 0.0001, ongoing: yes, time-window-complete: yes, 
Courant Number mean: 2.761627243e-05 max: 2.994227576
Time = 0.0009

PIMPLE: iteration 1
DICPCG:  Solving for cellDisplacementx, Initial residual = 0.09239770314, Final residual = 9.77766283e-09, No Iterations 39
DICPCG:  Solving for cellDisplacementy, Initial residual = 0.07694883951, Final residual = 8.99325494e-09, No Iterations 33
Mesh Courant Number mean: 2.650250612e-05 max: 0.5926702095
smoothSolver:  Solving for Ux, Initial residual = 7.798206587e-05, Final residual = 8.244385583e-09, No Iterations 1
smoothSolver:  Solving for Uy, Initial residual = 5.311180996e-06, Final residual = 4.760191441e-10, No Iterations 1
FDICPBiCGStab:  Solving for p, Initial residual = 0.2230519395, Final residual = 0.01016231909, No Iterations 1
FDICPBiCGStab:  Solving for p, Initial residual = 0.008637729937, Final residual = 0.004636286555, No Iterations 3
FDICPBiCGStab:  Solving for p, Initial residual = 0.004633756272, Final residual = 0.003948157162, No Iterations 3
time step continuity errors : sum local = 6.369219041e-12, global = 2.92262997e-12, cumulative = 2.518006289e-11
FDICPBiCGStab:  Solving for p, Initial residual = 0.1504744171, Final residual = 0.007224309641, No Iterations 1
FDICPBiCGStab:  Solving for p, Initial residual = 0.006502093368, Final residual = 0.003904143986, No Iterations 3
FDICPBiCGStab:  Solving for p, Initial residual = 0.003906643347, Final residual = 0.003415643139, No Iterations 3
time step continuity errors : sum local = 5.535409543e-12, global = 2.886464491e-12, cumulative = 2.806652738e-11
FDICPBiCGStab:  Solving for p, Initial residual = 0.1495948244, Final residual = 0.007139346624, No Iterations 1
FDICPBiCGStab:  Solving for p, Initial residual = 0.006429612634, Final residual = 0.003792480259, No Iterations 3
FDICPBiCGStab:  Solving for p, Initial residual = 0.003792381023, Final residual = 0.003353443855, No Iterations 3
time step continuity errors : sum local = 5.439093354e-12, global = 2.876719391e-12, cumulative = 3.094324677e-11
PIMPLE: iteration 2
smoothSolver:  Solving for Ux, Initial residual = 2.761642803e-05, Final residual = 4.60199101e-09, No Iterations 1
smoothSolver:  Solving for Uy, Initial residual = 1.333482647e-06, Final residual = 2.315571637e-10, No Iterations 1
FDICPBiCGStab:  Solving for p, Initial residual = 0.1450938461, Final residual = 0.008211367605, No Iterations 1
FDICPBiCGStab:  Solving for p, Initial residual = 0.007489517437, Final residual = 0.003042191323, No Iterations 3
FDICPBiCGStab:  Solving for p, Initial residual = 0.003084198649, Final residual = 0.003431128936, No Iterations 3
time step continuity errors : sum local = 5.428289614e-12, global = 2.95766417e-12, cumulative = 3.390091094e-11
FDICPBiCGStab:  Solving for p, Initial residual = 0.1011879251, Final residual = 0.006206202564, No Iterations 1
FDICPBiCGStab:  Solving for p, Initial residual = 0.005839916841, Final residual = 0.002659154474, No Iterations 3
FDICPBiCGStab:  Solving for p, Initial residual = 0.002695734015, Final residual = 0.00340693236, No Iterations 3
time step continuity errors : sum local = 5.409870359e-12, global = 2.900629037e-12, cumulative = 3.680153997e-11
FDICPBiCGStab:  Solving for p, Initial residual = 0.1004917383, Final residual = 0.006103911466, No Iterations 1
FDICPBiCGStab:  Solving for p, Initial residual = 0.005750827289, Final residual = 0.002555186216, No Iterations 3
FDICPBiCGStab:  Solving for p, Initial residual = 0.00258947457, Final residual = 0.003317024459, No Iterations 3
time step continuity errors : sum local = 5.273724576e-12, global = 2.88555067e-12, cumulative = 3.968709064e-11
PIMPLE: iteration 3
smoothSolver:  Solving for Ux, Initial residual = 2.81234275e-06, Final residual = 1.081575285e-09, No Iterations 1
smoothSolver:  Solving for Uy, Initial residual = 2.509446702e-07, Final residual = 1.187608547e-10, No Iterations 1
FDICPBiCGStab:  Solving for p, Initial residual = 0.09999767824, Final residual = 0.007149900399, No Iterations 1
FDICPBiCGStab:  Solving for p, Initial residual = 0.006781589902, Final residual = 0.002539759531, No Iterations 3
FDICPBiCGStab:  Solving for p, Initial residual = 0.002575315976, Final residual = 0.002517075916, No Iterations 3
time step continuity errors : sum local = 3.960192931e-12, global = 2.939093417e-12, cumulative = 4.262618406e-11
FDICPBiCGStab:  Solving for p, Initial residual = 0.07094369242, Final residual = 0.005543777949, No Iterations 1
FDICPBiCGStab:  Solving for p, Initial residual = 0.005358187235, Final residual = 0.002238054082, No Iterations 3
FDICPBiCGStab:  Solving for p, Initial residual = 0.002265738677, Final residual = 0.002581027011, No Iterations 3
time step continuity errors : sum local = 4.071382783e-12, global = 2.905930226e-12, cumulative = 4.553211429e-11
FDICPBiCGStab:  Solving for p, Initial residual = 0.07056477005, Final residual = 0.005526341489, No Iterations 1
FDICPBiCGStab:  Solving for p, Initial residual = 0.005343385331, Final residual = 0.002190578281, No Iterations 3
FDICPBiCGStab:  Solving for p, Initial residual = 0.002216539595, Final residual = 0.002573526782, No Iterations 3
time step continuity errors : sum local = 4.063196699e-12, global = 2.895102757e-12, cumulative = 4.842721704e-11
PIMPLE: iteration 4
smoothSolver:  Solving for Ux, Initial residual = 1.708291946e-06, Final residual = 1.106545758e-09, No Iterations 1
smoothSolver:  Solving for Uy, Initial residual = 1.754661331e-07, Final residual = 1.479235769e-10, No Iterations 1
FDICPBiCGStab:  Solving for p, Initial residual = 0.1798932992, Final residual = 0.008824200811, No Iterations 1
FDICPBiCGStab:  Solving for p, Initial residual = 0.01064562372, Final residual = 0.004277257306, No Iterations 3
FDICPBiCGStab:  Solving for p, Initial residual = 0.004331343758, Final residual = 0.004232091044, No Iterations 3
time step continuity errors : sum local = 6.25586415e-12, global = 2.879138071e-12, cumulative = 5.130635511e-11
FDICPBiCGStab:  Solving for p, Initial residual = 0.0380955754, Final residual = 0.003593548825, No Iterations 2
FDICPBiCGStab:  Solving for p, Initial residual = 0.003737314527, Final residual = 0.002841463291, No Iterations 3
FDICPBiCGStab:  Solving for p, Initial residual = 0.002864550092, Final residual = 0.002485544549, No Iterations 3
time step continuity errors : sum local = 3.649315291e-12, global = 2.763625033e-12, cumulative = 5.406998015e-11
FDICPBiCGStab:  Solving for p, Initial residual = 0.02822518616, Final residual = 0.002445815243, No Iterations 2
FDICPBiCGStab:  Solving for p, Initial residual = 0.002529583079, Final residual = 0.002115334692, No Iterations 3
FDICPBiCGStab:  Solving for p, Initial residual = 0.002114621039, Final residual = 0.002323021047, No Iterations 3
time step continuity errors : sum local = 3.42458355e-12, global = 2.67115373e-12, cumulative = 5.674113388e-11
ExecutionTime = 2.98 s  ClockTime = 3 s

---[precice] [0m Time window completed
---[precice] [0m iteration: 1, time-window: 10, time: 0.0009 of 10, time-window-size: 0.0001, max-timestep-length: 0.0001, ongoing: yes, time-window-complete: yes, 
Courant Number mean: 2.648960774e-05 max: 2.874905593
Time = 0.001

PIMPLE: iteration 1
DICPCG:  Solving for cellDisplacementx, Initial residual = 0.08013646185, Final residual = 6.697120148e-09, No Iterations 40
DICPCG:  Solving for cellDisplacementy, Initial residual = 0.06670899495, Final residual = 8.741148204e-09, No Iterations 32
Mesh Courant Number mean: 2.996362468e-05 max: 0.5937916735
smoothSolver:  Solving for Ux, Initial residual = 1.660637273e-05, Final residual = 4.821110652e-09, No Iterations 1
smoothSolver:  Solving for Uy, Initial residual = 1.894588811e-06, Final residual = 4.830021254e-10, No Iterations 1
FDICPBiCGStab:  Solving for p, Initial residual = 0.2171237772, Final residual = 0.009722652027, No Iterations 1
FDICPBiCGStab:  Solving for p, Initial residual = 0.008283599166, Final residual = 0.004438056057, No Iterations 3
FDICPBiCGStab:  Solving for p, Initial residual = 0.004437573893, Final residual = 0.003695785951, No Iterations 3
time step continuity errors : sum local = 5.791251509e-12, global = 2.57004331e-12, cumulative = 5.931117719e-11
FDICPBiCGStab:  Solving for p, Initial residual = 0.1464905556, Final residual = 0.006914803243, No Iterations 1
FDICPBiCGStab:  Solving for p, Initial residual = 0.006222276946, Final residual = 0.003730521769, No Iterations 3
FDICPBiCGStab:  Solving for p, Initial residual = 0.003734163545, Final residual = 0.003192881053, No Iterations 3
time step continuity errors : sum local = 5.025919395e-12, global = 2.537559759e-12, cumulative = 6.184873695e-11
FDICPBiCGStab:  Solving for p, Initial residual = 0.1456453174, Final residual = 0.006835641543, No Iterations 1
FDICPBiCGStab:  Solving for p, Initial residual = 0.006153971884, Final residual = 0.003625630329, No Iterations 3
FDICPBiCGStab:  Solving for p, Initial residual = 0.003626887472, Final residual = 0.003131537142, No Iterations 3
time step continuity errors : sum local = 4.933386887e-12, global = 2.529176082e-12, cumulative = 6.437791303e-11
PIMPLE: iteration 2
smoothSolver:  Solving for Ux, Initial residual = 3.400083311e-06, Final residual = 1.065068521e-09, No Iterations 1
smoothSolver:  Solving for Uy, Initial residual = 6.864264343e-07, Final residual = 2.308144135e-10, No Iterations 1
FDICPBiCGStab:  Solving for p, Initial residual = 0.142126961, Final residual = 0.008056119892, No Iterations 1
FDICPBiCGStab:  Solving for p, Initial residual = 0.007338323303, Final residual = 0.002813220741, No Iterations 3
FDICPBiCGStab:  Solving for p, Initial residual = 0.002853145379, Final residual = 0.003137477624, No Iterations 3
time step continuity errors : sum local = 4.83186415e-12, global = 2.51818616e-12, cumulative = 6.689609919e-11
FDICPBiCGStab:  Solving for p, Initial residual = 0.09859536608, Final residual = 0.006027873707, No Iterations 1
FDICPBiCGStab:  Solving for p, Initial residual = 0.005670683389, Final residual = 0.002458571304, No Iterations 3
FDICPBiCGStab:  Solving for p, Initial residual = 0.002495775044, Final residual = 0.003046504496, No Iterations 3
time step continuity errors : sum local = 4.708083145e-12, global = 2.470260724e-12, cumulative = 6.936635991e-11
FDICPBiCGStab:  Solving for p, Initial residual = 0.09804594904, Final residual = 0.00593320731, No Iterations 1
FDICPBiCGStab:  Solving for p, Initial residual = 0.005588781162, Final residual = 0.002367583993, No Iterations 3
FDICPBiCGStab:  Solving for p, Initial residual = 0.002402530012, Final residual = 0.002957656096, No Iterations 3
time step continuity errors : sum local = 4.57573883e-12, global = 2.458974285e-12, cumulative = 7.18253342e-11
PIMPLE: iteration 3
smoothSolver:  Solving for Ux, Initial residual = 1.515772264e-06, Final residual = 3.913162169e-10, No Iterations 1
smoothSolver:  Solving for Uy, Initial residual = 3.434799909e-07, Final residual = 1.16418662e-10, No Iterations 1
FDICPBiCGStab:  Solving for p, Initial residual = 0.1004069582, Final residual = 0.007050818849, No Iterations 1
FDICPBiCGStab:  Solving for p, Initial residual = 0.006677101892, Final residual = 0.002386313841, No Iterations 3
FDICPBiCGStab:  Solving for p, Initial residual = 0.002424451985, Final residual = 0.002198712738, No Iterations 3
time step continuity errors : sum local = 3.367054119e-12, global = 2.480403552e-12, cumulative = 7.430573775e-11
FDICPBiCGStab:  Solving for p, Initial residual = 0.07097201735, Final residual = 0.005393689261, No Iterations 1
FDICPBiCGStab:  Solving for p, Initial residual = 0.005211143858, Final residual = 0.002088051121, No Iterations 3
FDICPBiCGStab:  Solving for p, Initial residual = 0.002117978027, Final residual = 0.002189501855, No Iterations 3
time step continuity errors : sum local = 3.360415789e-12, global = 2.456280071e-12, cumulative = 7.676201782e-11
FDICPBiCGStab:  Solving for p, Initial residual = 0.07063080021, Final residual = 0.005376945086, No Iterations 1
FDICPBiCGStab:  Solving for p, Initial residual = 0.005196699598, Final residual = 0.002048479689, No Iterations 3
FDICPBiCGStab:  Solving for p, Initial residual = 0.002077453144, Final residual = 0.002175725734, No Iterations 3
time step continuity errors : sum local = 3.341283836e-12, global = 2.448857518e-12, cumulative = 7.921087534e-11
PIMPLE: iteration 4
smoothSolver:  Solving for Ux, Initial residual = 1.038655034e-06, Final residual = 4.359761294e-10, No Iterations 1
smoothSolver:  Solving for Uy, Initial residual = 2.534677791e-07, Final residual = 1.429628428e-10, No Iterations 1
FDICPBiCGStab:  Solving for p, Initial residual = 0.1750973101, Final residual = 0.008442032278, No Iterations 1
FDICPBiCGStab:  Solving for p, Initial residual = 0.01013416585, Final residual = 0.003848864703, No Iterations 3
FDICPBiCGStab:  Solving for p, Initial residual = 0.003906522798, Final residual = 0.003717383384, No Iterations 3
time step continuity errors : sum local = 5.36494346e-12, global = 2.419038918e-12, cumulative = 8.162991426e-11
FDICPBiCGStab:  Solving for p, Initial residual = 0.03730846501, Final residual = 0.003207757066, No Iterations 2
FDICPBiCGStab:  Solving for p, Initial residual = 0.00333909799, Final residual = 0.002508866868, No Iterations 3
FDICPBiCGStab:  Solving for p, Initial residual = 0.002528805041, Final residual = 0.002281551509, No Iterations 3
time step continuity errors : sum local = 3.259911003e-12, global = 2.328166251e-12, cumulative = 8.395808051e-11
FDICPBiCGStab:  Solving for p, Initial residual = 0.02791006272, Final residual = 0.002686420172, No Iterations 1
FDICPBiCGStab:  Solving for p, Initial residual = 0.002770594658, Final residual = 0.001847785961, No Iterations 3
FDICPBiCGStab:  Solving for p, Initial residual = 0.001853588806, Final residual = 0.002360856105, No Iterations 3
time step continuity errors : sum local = 3.376943428e-12, global = 2.19625538e-12, cumulative = 8.615433589e-11
ExecutionTime = 3.31 s  ClockTime = 3 s

---[precice] [0m Time window completed
---[precice] [0m iteration: 1, time-window: 11, time: 0.001 of 10, time-window-size: 0.0001, max-timestep-length: 0.0001, ongoing: yes, time-window-complete: yes, 
Courant Number mean: 2.9950911e-05 max: 2.754619946
Time = 0.0011

PIMPLE: iteration 1
DICPCG:  Solving for cellDisplacementx, Initial residual = 0.07075949857, Final residual = 9.545674913e-09, No Iterations 38
DICPCG:  Solving for cellDisplacementy, Initial residual = 0.0588873475, Final residual = 7.582211157e-09, No Iterations 33
Mesh Courant Number mean: 2.472254043e-05 max: 0.594927493
smoothSolver:  Solving for Ux, Initial residual = 2.114361736e-05, Final residual = 1.948526105e-09, No Iterations 1
smoothSolver:  Solving for Uy, Initial residual = 5.357581252e-06, Final residual = 4.661606255e-10, No Iterations 1
FDICPBiCGStab:  Solving for p, Initial residual = 0.2172978202, Final residual = 0.01040216486, No Iterations 1
FDICPBiCGStab:  Solving for p, Initial residual = 0.008830160812, Final residual = 0.004492082302, No Iterations 3
FDICPBiCGStab:  Solving for p, Initial residual = 0.004495656038, Final residual = 0.003574168461, No Iterations 3
time step continuity errors : sum local = 5.435265313e-12, global = 1.842157902e-12, cumulative = 8.799649379e-11
FDICPBiCGStab:  Solving for p, Initial residual = 0.1468283423, Final residual = 0.007267843324, No Iterations 1
FDICPBiCGStab:  Solving for p, Initial residual = 0.006511072342, Final residual = 0.003716853784, No Iterations 3
FDICPBiCGStab:  Solving for p, Initial residual = 0.003718070922, Final residual = 0.003038436317, No Iterations 3
time step continuity errors : sum local = 4.638001477e-12, global = 1.819784438e-12, cumulative = 8.981627823e-11
FDICPBiCGStab:  Solving for p, Initial residual = 0.146050166, Final residual = 0.007198826718, No Iterations 1
FDICPBiCGStab:  Solving for p, Initial residual = 0.006452841199, Final residual = 0.003612127108, No Iterations 3
FDICPBiCGStab:  Solving for p, Initial residual = 0.003612426348, Final residual = 0.002977153237, No Iterations 3
time step continuity errors : sum local = 4.546972366e-12, global = 1.814649785e-12, cumulative = 9.163092801e-11
PIMPLE: iteration 2
smoothSolver:  Solving for Ux, Initial residual = 5.014958767e-06, Final residual = 6.024711133e-10, No Iterations 1
smoothSolver:  Solving for Uy, Initial residual = 1.607493684e-06, Final residual = 2.239459886e-10, No Iterations 1
FDICPBiCGStab:  Solving for p, Initial residual = 0.1448658918, Final residual = 0.00838969739, No Iterations 1
FDICPBiCGStab:  Solving for p, Initial residual = 0.00761509038, Final residual = 0.002677130078, No Iterations 3
FDICPBiCGStab:  Solving for p, Initial residual = 0.002695604758, Final residual = 0.002925335799, No Iterations 3
time step continuity errors : sum local = 4.368560972e-12, global = 1.711859827e-12, cumulative = 9.334278784e-11
FDICPBiCGStab:  Solving for p, Initial residual = 0.1006151252, Final residual = 0.006073413952, No Iterations 1
FDICPBiCGStab:  Solving for p, Initial residual = 0.005686609226, Final residual = 0.002294196752, No Iterations 3
FDICPBiCGStab:  Solving for p, Initial residual = 0.002318895947, Final residual = 0.002652052006, No Iterations 3
time step continuity errors : sum local = 3.971037889e-12, global = 1.681125676e-12, cumulative = 9.502391351e-11
FDICPBiCGStab:  Solving for p, Initial residual = 0.1000656861, Final residual = 0.006005049805, No Iterations 1
FDICPBiCGStab:  Solving for p, Initial residual = 0.005628412369, Final residual = 0.00220128161, No Iterations 3
FDICPBiCGStab:  Solving for p, Initial residual = 0.002224640145, Final residual = 0.002555443213, No Iterations 3
time step continuity errors : sum local = 3.828904443e-12, global = 1.674933e-12, cumulative = 9.669884651e-11
PIMPLE: iteration 3
smoothSolver:  Solving for Ux, Initial residual = 1.638441966e-06, Final residual = 2.377428698e-10, No Iterations 1
smoothSolver:  Solving for Uy, Initial residual = 5.63351304e-07, Final residual = 1.130799776e-10, No Iterations 1
FDICPBiCGStab:  Solving for p, Initial residual = 0.1024924454, Final residual = 0.007092851135, No Iterations 1
FDICPBiCGStab:  Solving for p, Initial residual = 0.006688197705, Final residual = 0.002166794938, No Iterations 3
FDICPBiCGStab:  Solving for p, Initial residual = 0.002207350283, Final residual = 0.001845509584, No Iterations 3
time step continuity errors : sum local = 2.737307598e-12, global = 1.659537829e-12, cumulative = 9.835838434e-11
[...]
time step continuity errors : sum local = 1.073244539e-12, global = -1.090827829e-14, cumulative = -2.336904225e-11
PIMPLE: iteration 2
smoothSolver:  Solving for Ux, Initial residual = 2.692916573e-08, Final residual = 1.206209027e-12, No Iterations 1
smoothSolver:  Solving for Uy, Initial residual = 6.457356369e-08, Final residual = 3.619867925e-12, No Iterations 1
FDICPBiCGStab:  Solving for p, Initial residual = 0.1403468201, Final residual = 0.009565844557, No Iterations 1
FDICPBiCGStab:  Solving for p, Initial residual = 0.01668992636, Final residual = 0.001541490624, No Iterations 2
FDICPBiCGStab:  Solving for p, Initial residual = 0.00401062494, Final residual = 0.0006525721623, No Iterations 3
time step continuity errors : sum local = 3.784921179e-13, global = -1.101538453e-14, cumulative = -2.338005763e-11
FDICPBiCGStab:  Solving for p, Initial residual = 0.09660637499, Final residual = 0.006527255218, No Iterations 1
FDICPBiCGStab:  Solving for p, Initial residual = 0.01182243642, Final residual = 0.001178284454, No Iterations 2
FDICPBiCGStab:  Solving for p, Initial residual = 0.002918170508, Final residual = 0.0005579504674, No Iterations 3
time step continuity errors : sum local = 3.248580194e-13, global = -1.10089253e-14, cumulative = -2.339106656e-11
FDICPBiCGStab:  Solving for p, Initial residual = 0.09604349644, Final residual = 0.006499537479, No Iterations 1
FDICPBiCGStab:  Solving for p, Initial residual = 0.0117613251, Final residual = 0.001156482485, No Iterations 2
FDICPBiCGStab:  Solving for p, Initial residual = 0.002888203535, Final residual = 0.000546004165, No Iterations 3
time step continuity errors : sum local = 3.179574715e-13, global = -1.100459332e-14, cumulative = -2.340207115e-11
PIMPLE: iteration 3
smoothSolver:  Solving for Ux, Initial residual = 8.386017816e-09, Final residual = 3.943558452e-13, No Iterations 1
smoothSolver:  Solving for Uy, Initial residual = 1.98420061e-08, Final residual = 1.327480256e-12, No Iterations 1
FDICPBiCGStab:  Solving for p, Initial residual = 0.1120171186, Final residual = 0.006712050733, No Iterations 1
FDICPBiCGStab:  Solving for p, Initial residual = 0.01462520265, Final residual = 0.001327320011, No Iterations 3
FDICPBiCGStab:  Solving for p, Initial residual = 0.003757043104, Final residual = 0.0007122602149, No Iterations 3
time step continuity errors : sum local = 4.003248372e-13, global = -1.103084443e-14, cumulative = -2.3413102e-11
FDICPBiCGStab:  Solving for p, Initial residual = 0.0783359218, Final residual = 0.0046770301, No Iterations 1
FDICPBiCGStab:  Solving for p, Initial residual = 0.01038723375, Final residual = 0.0009319611936, No Iterations 3
FDICPBiCGStab:  Solving for p, Initial residual = 0.002699520104, Final residual = 0.0005701670289, No Iterations 3
time step continuity errors : sum local = 3.212610499e-13, global = -1.101980279e-14, cumulative = -2.34241218e-11
FDICPBiCGStab:  Solving for p, Initial residual = 0.07793442385, Final residual = 0.004653878272, No Iterations 1
FDICPBiCGStab:  Solving for p, Initial residual = 0.01033479661, Final residual = 0.001016878265, No Iterations 3
FDICPBiCGStab:  Solving for p, Initial residual = 0.002732145299, Final residual = 0.0005867922215, No Iterations 3
time step continuity errors : sum local = 3.306675505e-13, global = -1.101835565e-14, cumulative = -2.343514015e-11
PIMPLE: iteration 4
smoothSolver:  Solving for Ux, Initial residual = 3.506917609e-09, Final residual = 3.395965745e-13, No Iterations 1
smoothSolver:  Solving for Uy, Initial residual = 8.22140777e-09, Final residual = 1.15095969e-12, No Iterations 1
FDICPBiCGStab:  Solving for p, Initial residual = 0.1695687222, Final residual = 0.01216142655, No Iterations 1
FDICPBiCGStab:  Solving for p, Initial residual = 0.02774938168, Final residual = 0.002721615779, No Iterations 2
FDICPBiCGStab:  Solving for p, Initial residual = 0.006893016103, Final residual = 0.001121442349, No Iterations 3
time step continuity errors : sum local = 5.746272303e-13, global = -1.123475434e-14, cumulative = -2.344637491e-11
FDICPBiCGStab:  Solving for p, Initial residual = 0.02950933248, Final residual = 0.00207681418, No Iterations 1
FDICPBiCGStab:  Solving for p, Initial residual = 0.004352466182, Final residual = 0.000772751129, No Iterations 3
FDICPBiCGStab:  Solving for p, Initial residual = 0.00144917953, Final residual = 0.0004929012046, No Iterations 3
time step continuity errors : sum local = 2.480363703e-13, global = -1.118725024e-14, cumulative = -2.345756216e-11
FDICPBiCGStab:  Solving for p, Initial residual = 0.02219605321, Final residual = 0.001495783073, No Iterations 1
FDICPBiCGStab:  Solving for p, Initial residual = 0.003154564335, Final residual = 0.0004522968421, No Iterations 3
FDICPBiCGStab:  Solving for p, Initial residual = 0.0009425942018, Final residual = 0.0003234274966, No Iterations 3
time step continuity errors : sum local = 1.623099574e-13, global = -1.114669619e-14, cumulative = -2.346870885e-11
ExecutionTime = 138.34 s  ClockTime = 145 s

---[precice] [0m Time window completed
---[precice] [0m iteration: 1, time-window: 436, time: 0.0435 of 10, time-window-size: 0.0001, max-timestep-length: 0.0001, ongoing: yes, time-window-complete: yes, 
Courant Number mean: 3.098194003e-05 max: 0.7816167247
Time = 0.0436

PIMPLE: iteration 1
DICPCG:  Solving for cellDisplacementx, Initial residual = 0.001320132556, Final residual = 8.67343374e-09, No Iterations 22
DICPCG:  Solving for cellDisplacementy, Initial residual = 0.002663434963, Final residual = 8.405405898e-09, No Iterations 25
Mesh Courant Number mean: 2.990962843e-05 max: 1.600681453
smoothSolver:  Solving for Ux, Initial residual = 7.807151209e-08, Final residual = 3.131210494e-12, No Iterations 1
smoothSolver:  Solving for Uy, Initial residual = 1.881960406e-07, Final residual = 8.874460711e-12, No Iterations 1
FDICPBiCGStab:  Solving for p, Initial residual = 0.2979353911, Final residual = 0.01961141605, No Iterations 1
FDICPBiCGStab:  Solving for p, Initial residual = 0.03771416288, Final residual = 0.003712904129, No Iterations 3
FDICPBiCGStab:  Solving for p, Initial residual = 0.009523859215, Final residual = 0.002178004748, No Iterations 3
time step continuity errors : sum local = 1.440099699e-12, global = -1.166587572e-14, cumulative = -2.348037473e-11
FDICPBiCGStab:  Solving for p, Initial residual = 0.1974409179, Final residual = 0.01311933915, No Iterations 1
FDICPBiCGStab:  Solving for p, Initial residual = 0.02663266088, Final residual = 0.002933410995, No Iterations 3
FDICPBiCGStab:  Solving for p, Initial residual = 0.006972469818, Final residual = 0.001766186077, No Iterations 3
time step continuity errors : sum local = 1.175779297e-12, global = -1.156632585e-14, cumulative = -2.349194106e-11
FDICPBiCGStab:  Solving for p, Initial residual = 0.1963529608, Final residual = 0.01301886553, No Iterations 1
FDICPBiCGStab:  Solving for p, Initial residual = 0.026487582, Final residual = 0.00285901852, No Iterations 3
FDICPBiCGStab:  Solving for p, Initial residual = 0.006894040717, Final residual = 0.001722865228, No Iterations 3
time step continuity errors : sum local = 1.147238126e-12, global = -1.154124891e-14, cumulative = -2.350348231e-11
PIMPLE: iteration 2
smoothSolver:  Solving for Ux, Initial residual = 2.750525605e-08, Final residual = 1.411347116e-12, No Iterations 1
smoothSolver:  Solving for Uy, Initial residual = 6.464310508e-08, Final residual = 3.96218643e-12, No Iterations 1
FDICPBiCGStab:  Solving for p, Initial residual = 0.1431159594, Final residual = 0.009751551118, No Iterations 1
FDICPBiCGStab:  Solving for p, Initial residual = 0.01687311183, Final residual = 0.001561419424, No Iterations 2
FDICPBiCGStab:  Solving for p, Initial residual = 0.004005618498, Final residual = 0.0006141788901, No Iterations 3
time step continuity errors : sum local = 3.588402805e-13, global = -1.162118035e-14, cumulative = -2.351510349e-11
FDICPBiCGStab:  Solving for p, Initial residual = 0.09852677187, Final residual = 0.00664255023, No Iterations 1
FDICPBiCGStab:  Solving for p, Initial residual = 0.01194577651, Final residual = 0.001187759865, No Iterations 2
FDICPBiCGStab:  Solving for p, Initial residual = 0.002909421588, Final residual = 0.0005172664467, No Iterations 3
time step continuity errors : sum local = 3.033860378e-13, global = -1.155682359e-14, cumulative = -2.352666031e-11
FDICPBiCGStab:  Solving for p, Initial residual = 0.09795220958, Final residual = 0.00661525421, No Iterations 1
FDICPBiCGStab:  Solving for p, Initial residual = 0.01188457993, Final residual = 0.001165123186, No Iterations 2
FDICPBiCGStab:  Solving for p, Initial residual = 0.002879310008, Final residual = 0.0005056700905, No Iterations 3
time step continuity errors : sum local = 2.966356777e-13, global = -1.154404525e-14, cumulative = -2.353820435e-11
PIMPLE: iteration 3
smoothSolver:  Solving for Ux, Initial residual = 8.58560907e-09, Final residual = 4.720701527e-13, No Iterations 1
smoothSolver:  Solving for Uy, Initial residual = 1.986475545e-08, Final residual = 1.433071205e-12, No Iterations 1
FDICPBiCGStab:  Solving for p, Initial residual = 0.1136468709, Final residual = 0.00739549402, No Iterations 1
FDICPBiCGStab:  Solving for p, Initial residual = 0.01525419758, Final residual = 0.001431844717, No Iterations 3
FDICPBiCGStab:  Solving for p, Initial residual = 0.003815395967, Final residual = 0.0007425881339, No Iterations 3
time step continuity errors : sum local = 4.199161468e-13, global = -1.151532366e-14, cumulative = -2.354971968e-11
FDICPBiCGStab:  Solving for p, Initial residual = 0.07954262362, Final residual = 0.005157886952, No Iterations 1
FDICPBiCGStab:  Solving for p, Initial residual = 0.01082728309, Final residual = 0.000996923865, No Iterations 3
FDICPBiCGStab:  Solving for p, Initial residual = 0.002752652787, Final residual = 0.0005803281333, No Iterations 3
time step continuity errors : sum local = 3.289296977e-13, global = -1.145075465e-14, cumulative = -2.356117043e-11
FDICPBiCGStab:  Solving for p, Initial residual = 0.07913051385, Final residual = 0.005131901529, No Iterations 1
FDICPBiCGStab:  Solving for p, Initial residual = 0.01077590053, Final residual = 0.0009721398054, No Iterations 3
FDICPBiCGStab:  Solving for p, Initial residual = 0.002722681198, Final residual = 0.0005655890462, No Iterations 3
time step continuity errors : sum local = 3.206110564e-13, global = -1.14472645e-14, cumulative = -2.35726177e-11
PIMPLE: iteration 4
smoothSolver:  Solving for Ux, Initial residual = 3.612961736e-09, Final residual = 4.166461044e-13, No Iterations 1
smoothSolver:  Solving for Uy, Initial residual = 8.258441111e-09, Final residual = 1.241458696e-12, No Iterations 1
FDICPBiCGStab:  Solving for p, Initial residual = 0.1716043995, Final residual = 0.01165626808, No Iterations 1
FDICPBiCGStab:  Solving for p, Initial residual = 0.02768905459, Final residual = 0.002714354128, No Iterations 2
FDICPBiCGStab:  Solving for p, Initial residual = 0.006924730551, Final residual = 0.001125771144, No Iterations 3
time step continuity errors : sum local = 5.81402293e-13, global = -1.165631629e-14, cumulative = -2.358427401e-11
FDICPBiCGStab:  Solving for p, Initial residual = 0.02979792696, Final residual = 0.002044984572, No Iterations 1
FDICPBiCGStab:  Solving for p, Initial residual = 0.004418101434, Final residual = 0.0007879366475, No Iterations 3
FDICPBiCGStab:  Solving for p, Initial residual = 0.001473550431, Final residual = 0.0004981527978, No Iterations 3
time step continuity errors : sum local = 2.524364503e-13, global = -1.152817512e-14, cumulative = -2.359580219e-11
FDICPBiCGStab:  Solving for p, Initial residual = 0.02243407572, Final residual = 0.001466012559, No Iterations 1
FDICPBiCGStab:  Solving for p, Initial residual = 0.003178844068, Final residual = 0.0004552833821, No Iterations 3
FDICPBiCGStab:  Solving for p, Initial residual = 0.0009508402625, Final residual = 0.000320986796, No Iterations 3
time step continuity errors : sum local = 1.621966281e-13, global = -1.154184812e-14, cumulative = -2.360734404e-11
ExecutionTime = 138.64 s  ClockTime = 145 s

---[precice] [0m Time window completed
---[precice] [0m iteration: 1, time-window: 437, time: 0.0436 of 10, time-window-size: 0.0001, max-timestep-length: 0.0001, ongoing: yes, time-window-complete: yes, 
Courant Number mean: 2.990536128e-05 max: 0.781258349
Time = 0.0437

PIMPLE: iteration 1
DICPCG:  Solving for cellDisplacementx, Initial residual = 0.001315710118, Final residual = 8.648679104e-09, No Iterations 22
DICPCG:  Solving for cellDisplacementy, Initial residual = 0.002659047476, Final residual = 9.123735493e-09, No Iterations 26
Mesh Courant Number mean: 3.090822941e-05 max: 1.607390326
smoothSolver:  Solving for Ux, Initial residual = 7.763927394e-08, Final residual = 2.755379086e-12, No Iterations 1
smoothSolver:  Solving for Uy, Initial residual = 1.868010906e-07, Final residual = 7.532329386e-12, No Iterations 1
FDICPBiCGStab:  Solving for p, Initial residual = 0.3016331022, Final residual = 0.02051449221, No Iterations 1
FDICPBiCGStab:  Solving for p, Initial residual = 0.04049186109, Final residual = 0.003787597814, No Iterations 3
FDICPBiCGStab:  Solving for p, Initial residual = 0.01035071961, Final residual = 0.002147701178, No Iterations 3
time step continuity errors : sum local = 1.454269247e-12, global = -1.181067792e-14, cumulative = -2.361915471e-11
FDICPBiCGStab:  Solving for p, Initial residual = 0.1989230311, Final residual = 0.01361406445, No Iterations 1
FDICPBiCGStab:  Solving for p, Initial residual = 0.0285110412, Final residual = 0.002680846965, No Iterations 3
FDICPBiCGStab:  Solving for p, Initial residual = 0.007417821981, Final residual = 0.001613884567, No Iterations 3
time step continuity errors : sum local = 1.100190148e-12, global = -1.178511357e-14, cumulative = -2.363093983e-11
FDICPBiCGStab:  Solving for p, Initial residual = 0.1978658417, Final residual = 0.01350279615, No Iterations 1
FDICPBiCGStab:  Solving for p, Initial residual = 0.02835549423, Final residual = 0.002589320421, No Iterations 3
FDICPBiCGStab:  Solving for p, Initial residual = 0.007327950069, Final residual = 0.001563403731, No Iterations 3
time step continuity errors : sum local = 1.066030932e-12, global = -1.177563829e-14, cumulative = -2.364271547e-11
PIMPLE: iteration 2
smoothSolver:  Solving for Ux, Initial residual = 2.79054161e-08, Final residual = 1.032528644e-12, No Iterations 1
smoothSolver:  Solving for Uy, Initial residual = 6.368463851e-08, Final residual = 2.869380032e-12, No Iterations 1
FDICPBiCGStab:  Solving for p, Initial residual = 0.1386302524, Final residual = 0.009459829379, No Iterations 1
FDICPBiCGStab:  Solving for p, Initial residual = 0.01658236249, Final residual = 0.001580362563, No Iterations 2
FDICPBiCGStab:  Solving for p, Initial residual = 0.004055902367, Final residual = 0.0006360559624, No Iterations 3
time step continuity errors : sum local = 3.724187133e-13, global = -1.17297375e-14, cumulative = -2.36544452e-11
FDICPBiCGStab:  Solving for p, Initial residual = 0.09555933648, Final residual = 0.006475030633, No Iterations 1
FDICPBiCGStab:  Solving for p, Initial residual = 0.01175339822, Final residual = 0.0008998882369, No Iterations 3
FDICPBiCGStab:  Solving for p, Initial residual = 0.00289894261, Final residual = 0.0005226845604, No Iterations 3
time step continuity errors : sum local = 3.072523275e-13, global = -1.171858878e-14, cumulative = -2.366616379e-11
FDICPBiCGStab:  Solving for p, Initial residual = 0.09500405249, Final residual = 0.006433935731, No Iterations 1
FDICPBiCGStab:  Solving for p, Initial residual = 0.011683455, Final residual = 0.0008760995618, No Iterations 3
FDICPBiCGStab:  Solving for p, Initial residual = 0.00286460654, Final residual = 0.0005082384773, No Iterations 3
time step continuity errors : sum local = 2.988109922e-13, global = -1.171592274e-14, cumulative = -2.367787972e-11
PIMPLE: iteration 3
smoothSolver:  Solving for Ux, Initial residual = 8.709341624e-09, Final residual = 3.271512328e-13, No Iterations 1
smoothSolver:  Solving for Uy, Initial residual = 1.960276968e-08, Final residual = 1.023798285e-12, No Iterations 1
FDICPBiCGStab:  Solving for p, Initial residual = 0.1145656791, Final residual = 0.006634968848, No Iterations 1
FDICPBiCGStab:  Solving for p, Initial residual = 0.01522271996, Final residual = 0.001345465153, No Iterations 3
FDICPBiCGStab:  Solving for p, Initial residual = 0.003875262066, Final residual = 0.0007187938591, No Iterations 3
time step continuity errors : sum local = 4.034957144e-13, global = -1.169864184e-14, cumulative = -2.368957836e-11
FDICPBiCGStab:  Solving for p, Initial residual = 0.08033639063, Final residual = 0.004641426044, No Iterations 1
FDICPBiCGStab:  Solving for p, Initial residual = 0.01082440731, Final residual = 0.00105487525, No Iterations 3
FDICPBiCGStab:  Solving for p, Initial residual = 0.002845774071, Final residual = 0.0006064819999, No Iterations 3
time step continuity errors : sum local = 3.412117866e-13, global = -1.169647185e-14, cumulative = -2.370127483e-11
FDICPBiCGStab:  Solving for p, Initial residual = 0.07993019008, Final residual = 0.004619229351, No Iterations 1
FDICPBiCGStab:  Solving for p, Initial residual = 0.01076943336, Final residual = 0.00103490593, No Iterations 3
FDICPBiCGStab:  Solving for p, Initial residual = 0.002817985993, Final residual = 0.0005942265716, No Iterations 3
time step continuity errors : sum local = 3.343544443e-13, global = -1.169966923e-14, cumulative = -2.37129745e-11
PIMPLE: iteration 4
smoothSolver:  Solving for Ux, Initial residual = 3.635007087e-09, Final residual = 2.61778995e-13, No Iterations 1
smoothSolver:  Solving for Uy, Initial residual = 8.164015002e-09, Final residual = 8.8468456e-13, No Iterations 1
FDICPBiCGStab:  Solving for p, Initial residual = 0.1729414726, Final residual = 0.01227956042, No Iterations 1
FDICPBiCGStab:  Solving for p, Initial residual = 0.02940127428, Final residual = 0.002697171892, No Iterations 2
FDICPBiCGStab:  Solving for p, Initial residual = 0.007269336937, Final residual = 0.001114995396, No Iterations 3
time step continuity errors : sum local = 5.689788031e-13, global = -1.18985542e-14, cumulative = -2.372487305e-11
FDICPBiCGStab:  Solving for p, Initial residual = 0.0303164121, Final residual = 0.002083418453, No Iterations 1
FDICPBiCGStab:  Solving for p, Initial residual = 0.004592980974, Final residual = 0.0007704478468, No Iterations 3
FDICPBiCGStab:  Solving for p, Initial residual = 0.001501313944, Final residual = 0.000488272857, No Iterations 3
time step continuity errors : sum local = 2.446147303e-13, global = -1.190617497e-14, cumulative = -2.373677923e-11
FDICPBiCGStab:  Solving for p, Initial residual = 0.02281614869, Final residual = 0.001519844646, No Iterations 1
FDICPBiCGStab:  Solving for p, Initial residual = 0.003347923841, Final residual = 0.0004496816934, No Iterations 3
FDICPBiCGStab:  Solving for p, Initial residual = 0.0009856958002, Final residual = 0.0003188732211, No Iterations 3
time step continuity errors : sum local = 1.593038937e-13, global = -1.196121965e-14, cumulative = -2.374874045e-11
ExecutionTime = 138.97 s  ClockTime = 146 s

---[precice] [0m Time window completed
---[precice] [0m iteration: 1, time-window: 438, time: 0.0437 of 10, time-window-size: 0.0001, max-timestep-length: 0.0001, ongoing: yes, time-window-complete: yes, 
Courant Number mean: 3.090304987e-05 max: 0.7813631446
Time = 0.0438

PIMPLE: iteration 1
DICPCG:  Solving for cellDisplacementx, Initial residual = 0.001312589237, Final residual = 8.621340591e-09, No Iterations 22
DICPCG:  Solving for cellDisplacementy, Initial residual = 0.002651168677, Final residual = 7.413492579e-09, No Iterations 25
